data_KNN05at100K

_pd_block_id     KNN05at100K
_pd_proc_2theta_range_min  15 
_pd_proc_2theta_range_max 145
_pd_proc_ls_background_function   'Chebychev with six coefficients' 

loop_
      
_pd_data_point_id                           
      
_pd_meas_2theta_corrected     
_pd_meas_intensity_total                     
      
_pd_calc_intensity_total                     
      
_pd_proc_ls_weight     
1	15	118.274	120.81848	0.008454944
2	15.05	116.594	120.80038	0.008576771
3	15.1	122.467	120.78225	0.008165465
4	15.15	122.988	120.76409	0.008130875
5	15.2	115.744	120.74591	0.008639757
6	15.25	113.342	120.7277	0.008822855
7	15.3	121.63	120.70947	0.008221656
8	15.35	127.111	120.69121	0.00786714
9	15.4	127.271	120.67294	0.007857249
10	15.45	125.874	120.65465	0.007944452
11	15.5	115.101	120.63635	0.008688022
12	15.55	115.67	120.61803	0.008645284
13	15.6	117.368	120.59971	0.00852021
14	15.65	120.106	120.58138	0.008325979
15	15.7	123.128	120.56304	0.00812163
16	15.75	122.645	120.54471	0.008153614
17	15.8	121.022	120.52637	0.00826296
18	15.85	115.425	120.50804	0.008663634
19	15.9	118.937	120.48972	0.008407813
20	15.95	121.016	120.47141	0.00826337
21	16	122.302	120.45311	0.008176481
22	16.05	124.607	120.43483	0.008025231
23	16.1	123.7	120.41657	0.008084074
24	16.15	117.583	120.39833	0.008504631
25	16.2	118.561	120.38012	0.008434477
26	16.25	119.896	120.36194	0.008340562
27	16.3	117.32	120.34379	0.008523696
28	16.35	121.56	120.32568	0.00822639
29	16.4	119.104	120.30761	0.008396024
30	16.45	123.415	120.28959	0.008102743
31	16.5	120.345	120.27162	0.008309444
32	16.55	119.315	120.2537	0.008381176
33	16.6	122.386	120.23584	0.008170869
34	16.65	119.948	120.21804	0.008336946
35	16.7	117.772	120.20031	0.008490983
36	16.75	122.933	120.18265	0.008134512
37	16.8	120.888	120.16507	0.00827212
38	16.85	120.652	120.14758	0.0082883
39	16.9	114.144	120.13017	0.008760863
40	16.95	117.617	120.11285	0.008502172
41	17	118.345	120.09564	0.008449871
42	17.05	119.319	120.07852	0.008380895
43	17.1	124.379	120.06153	0.008039942
44	17.15	122.5	120.04464	0.008163265
45	17.2	120.118	120.02789	0.008325147
46	17.25	119.264	120.01126	0.00838476
47	17.3	122.848	119.99477	0.008140141
48	17.35	120.487	119.97843	0.008299651
49	17.4	122.327	119.96224	0.00817481
50	17.45	120.235	119.94622	0.008317046
51	17.5	117.903	119.93036	0.008481548
52	17.55	119.301	119.91468	0.008382159
53	17.6	121.032	119.89919	0.008262278
54	17.65	116.891	119.8839	0.008554979
55	17.7	121.258	119.86882	0.008246879
56	17.75	122.14	119.85396	0.008187326
57	17.8	122.483	119.83945	0.008164398
58	17.85	117.847	119.82534	0.008485579
59	17.9	117.394	119.81168	0.008518323
60	17.95	118.34	119.79852	0.008450228
61	18	112.617	119.78593	0.008879654
62	18.05	117.599	119.77404	0.008503474
63	18.1	122.154	119.76302	0.008186388
64	18.15	114.383	119.75323	0.008742558
65	18.2	114.673	119.74557	0.008720449
66	18.25	113.896	119.74667	0.00877994
67	18.3	114.331	119.73622	0.008746534
68	18.35	113.642	119.72526	0.008799564
69	18.4	118.269	119.71477	0.008455301
70	18.45	115.389	119.7048	0.008666337
71	18.5	110.736	119.6954	0.009030487
72	18.55	121.223	119.68662	0.00824926
73	18.6	115.058	119.67857	0.008691269
74	18.65	120.592	119.67142	0.008292424
75	18.7	117.802	119.66561	0.00848882
76	18.75	120.955	119.6635	0.008267538
77	18.8	126.045	119.65689	0.007933674
78	18.85	126.82	119.65089	0.007885192
79	18.9	118.637	119.64553	0.008429074
80	18.95	117.473	119.64086	0.008512594
81	19	121.728	119.6369	0.008215037
82	19.05	116.575	119.63369	0.008578169
83	19.1	121.429	119.63127	0.008235265
84	19.15	120.553	119.62967	0.008295107
85	19.2	124.161	119.62895	0.008054059
86	19.25	117.453	119.62914	0.008514044
87	19.3	119.816	119.6303	0.008346131
88	19.35	122.641	119.63248	0.00815388
89	19.4	124.725	119.63572	0.008017639
90	19.45	125.286	119.6401	0.007981738
91	19.5	118.539	119.64566	0.008436042
92	19.55	120.983	119.65248	0.008265624
93	19.6	116.057	119.66063	0.008616456
94	19.65	117.199	119.67017	0.008532496
95	19.7	122.136	119.6812	0.008187594
96	19.75	122.64	119.6938	0.008153947
97	19.8	124.496	119.70805	0.008032387
98	19.85	125.842	119.72406	0.007946473
99	19.9	120.569	119.74193	0.008294006
100	19.95	121.532	119.76178	0.008228286
101	20	121.093	119.78372	0.008258116
102	20.05	120.544	119.80789	0.008295726
103	20.1	120.98	119.83442	0.008265829
104	20.15	120.917	119.86348	0.008270136
105	20.2	113.338	119.89522	0.008823166
106	20.25	116.871	119.92982	0.008556443
107	20.3	124.411	119.96748	0.008037874
108	20.35	129.147	120.0084	0.007743114
109	20.4	122.492	120.0528	0.008163798
110	20.45	117.457	120.10094	0.008513754
111	20.5	115.096	120.15308	0.008688399
112	20.55	124.115	120.20952	0.008057044
113	20.6	117.715	120.27056	0.008495094
114	20.65	117.513	120.33657	0.008509697
115	20.7	127.647	120.40792	0.007834105
116	20.75	127.955	120.48503	0.007815248
117	20.8	121.265	120.56837	0.008246403
118	20.85	119.117	120.65844	0.008395107
119	20.9	113.509	120.75579	0.008809874
120	20.95	119.804	120.86106	0.008346967
121	21	123.26	120.97493	0.008112932
122	21.05	119.691	121.09817	0.008354847
123	21.1	112.191	121.23162	0.008913371
124	21.15	118.645	121.37624	0.008428505
125	21.2	119.78	121.53308	0.008348639
126	21.25	122.42	121.70335	0.0081686
127	21.3	122.882	121.88839	0.008137888
128	21.35	123.733	122.08972	0.008081918
129	21.4	121.366	122.30906	0.00823954
130	21.45	124.098	122.54835	0.008058148
131	21.5	116.811	122.80984	0.008560838
132	21.55	121.076	123.09608	0.008259275
133	21.6	123.121	123.40999	0.008122091
134	21.65	114.911	123.75498	0.008702387
135	21.7	116.975	124.13497	0.008548835
136	21.75	121.734	124.55455	0.008214632
137	21.8	116.467	125.01909	0.008586123
138	21.85	118.297	125.53492	0.0084533
139	21.9	129.742	126.10955	0.007707604
140	21.95	128.27	126.75196	0.007796055
141	22	133.384	127.47294	0.007497151
142	22.05	133.188	128.28559	0.007508184
143	22.1	131.586	129.20601	0.007599593
144	22.15	139.522	130.25431	0.007167328
145	22.2	143.831	131.45647	0.006952604
146	22.25	150.024	132.84793	0.0066656
147	22.3	150.5	134.48128	0.006644518
148	22.35	156.189	136.44182	0.0064025
149	22.4	158.213	138.87642	0.006320593
150	22.45	157.89	142.03961	0.006333523
151	22.5	171.042	146.35467	0.005846517
152	22.55	178.155	152.47459	0.00561309
153	22.6	185.857	161.31528	0.005380481
154	22.65	191.982	174.02742	0.005208822
155	22.7	197.037	191.88006	0.005075189
156	22.75	222.045	216.05935	0.004503592
157	22.8	234.85	247.4822	0.004258037
158	22.85	257.03	286.8118	0.003890596
159	22.9	280.492	334.72456	0.003565164
160	22.95	317.792	392.30636	0.003146712
161	23	354.425	461.49093	0.002821471
162	23.05	412.654	545.47688	0.002423338
163	23.1	503.256	648.90611	0.00198706
164	23.15	606.32	777.28494	0.001649294
165	23.2	740.994	934.8896	0.001349539
166	23.25	927.652	1120.68763	0.00107799
167	23.3	1134.862	1323.02226	0.000881164
168	23.35	1360.521	1515.50518	0.000735013
169	23.4	1532.194	1657.33238	0.000652659
170	23.45	1653.5	1701.01602	0.000604778
171	23.5	1628.544	1612.27355	0.000614045
172	23.55	1456.699	1400.07973	0.000686484
173	23.6	1208.611	1121.50434	0.000827396
174	23.65	922.6	843.03874	0.001083893
175	23.7	743.084	608.42526	0.001345743
176	23.75	605.25	434.59132	0.00165221
177	23.8	487.073	318.85664	0.00205308
178	23.85	393.523	248.20644	0.002541148
179	23.9	332.35	207.46025	0.003008876
180	23.95	266.365	184.21248	0.003754247
181	24	233.085	170.31326	0.00429028
182	24.05	195.315	161.20807	0.005119934
183	24.1	164.919	154.63509	0.006063583
184	24.15	152.67	149.53928	0.006550075
185	24.2	142.006	145.41937	0.007041956
186	24.25	134.628	142.0098	0.007427875
187	24.3	118.557	139.14736	0.008434761
188	24.35	124.33	136.71885	0.008043111
189	24.4	125.483	134.64032	0.007969207
190	24.45	118.454	132.84764	0.008442096
191	24.5	120.038	131.29105	0.008330695
192	24.55	119.7	129.93183	0.008354219
193	24.6	125.975	128.74068	0.007938083
194	24.65	122.267	127.70797	0.008178822
195	24.7	127.17	126.76946	0.00786349
196	24.75	122.465	125.92161	0.008165598
197	24.8	124.436	125.15985	0.00803626
198	24.85	121.335	124.47254	0.008241645
199	24.9	121.966	123.84995	0.008199006
200	24.95	123.973	123.28387	0.008066272
201	25	120.957	122.76737	0.008267401
202	25.05	119.256	122.29454	0.008385322
203	25.1	113.455	121.86035	0.008814067
204	25.15	119.72	121.46044	0.008352823
205	25.2	115.761	121.09107	0.008638488
206	25.25	118.734	120.74899	0.008422187
207	25.3	119.052	120.43137	0.008399691
208	25.35	124.838	120.13575	0.008010381
209	25.4	117.983	119.85997	0.008475797
210	25.45	115.982	119.60211	0.008622028
211	25.5	111.221	119.36051	0.008991108
212	25.55	110.749	119.13373	0.009029427
213	25.6	115.022	118.92068	0.008693989
214	25.65	115.736	118.72026	0.008640354
215	25.7	113.859	118.53152	0.008782793
216	25.75	114.943	118.35373	0.008699964
217	25.8	119.217	118.1864	0.008388065
218	25.85	120.535	118.02963	0.008296345
219	25.9	116.019	117.88775	0.008619278
220	25.95	115.253	117.74934	0.008676564
221	26	116.019	117.61027	0.008619278
222	26.05	125.823	117.47753	0.007947673
223	26.1	120.979	117.35067	0.008265897
224	26.15	112.915	117.22926	0.008856219
225	26.2	119.239	117.11293	0.008386518
226	26.25	123.097	117.00132	0.008123675
227	26.3	117.42	116.89414	0.008516437
228	26.35	117.256	116.79119	0.008528348
229	26.4	122.202	116.69257	0.008183172
230	26.45	113.296	116.59816	0.008826437
231	26.5	120.91	116.50793	0.008270615
232	26.55	117	116.42198	0.008547009
233	26.6	118.963	116.34072	0.008405975
234	26.65	118.89	116.26544	0.008411136
235	26.7	118.21	116.20475	0.008459521
236	26.75	113.685	116.13849	0.008796235
237	26.8	119.579	116.06319	0.008362672
238	26.85	118.711	115.99014	0.008423819
239	26.9	116.982	115.91921	0.008548324
240	26.95	117.623	115.85031	0.008501739
241	27	119.728	115.78332	0.008352265
242	27.05	117.35	115.71814	0.008521517
243	27.1	117.622	115.6547	0.008501811
244	27.15	117.702	115.59292	0.008496032
245	27.2	115.161	115.5327	0.008683495
246	27.25	113.24	115.47399	0.008830802
247	27.3	116.988	115.41671	0.008547885
248	27.35	116.456	115.3608	0.008586934
249	27.4	119.135	115.30622	0.008393839
250	27.45	111.86	115.25289	0.008939746
251	27.5	109.064	115.20078	0.009168928
252	27.55	110.819	115.14984	0.009023723
253	27.6	119.352	115.10002	0.008378578
254	27.65	114.618	115.05128	0.008724633
255	27.7	112.53	115.00359	0.008886519
256	27.75	112.798	114.95691	0.008865405
257	27.8	119.273	114.9112	0.008384127
258	27.85	118.068	114.86645	0.008469695
259	27.9	117.836	114.82261	0.008486371
260	27.95	112.406	114.77967	0.008896322
261	28	116.121	114.7376	0.008611707
262	28.05	115.906	114.69638	0.008627681
263	28.1	112.276	114.65599	0.008906623
264	28.15	115.81	114.6164	0.008634833
265	28.2	114.052	114.57761	0.00876793
266	28.25	111.818	114.53961	0.008943104
267	28.3	109.087	114.50236	0.009166995
268	28.35	114.491	114.46587	0.008734311
269	28.4	118.924	114.43012	0.008408732
270	28.45	112.774	114.39511	0.008867292
271	28.5	113.504	114.36083	0.008810262
272	28.55	116.476	114.32726	0.00858546
273	28.6	118.755	114.29441	0.008420698
274	28.65	117.163	114.26227	0.008535118
275	28.7	120.76	114.23085	0.008280888
276	28.75	117.877	114.20013	0.008483419
277	28.8	116.867	114.17012	0.008556735
278	28.85	118.234	114.14082	0.008457804
279	28.9	115.201	114.11224	0.00868048
280	28.95	117.646	114.08438	0.008500077
281	29	120.987	114.05724	0.008265351
282	29.05	118.869	114.03084	0.008412622
283	29.1	119.179	114.00518	0.00839074
284	29.15	119.672	113.98028	0.008356174
285	29.2	111.378	113.95614	0.008978434
286	29.25	110.671	113.93278	0.009035791
287	29.3	118.406	113.91022	0.008445518
288	29.35	118.139	113.88848	0.008464605
289	29.4	121.937	113.86757	0.008200956
290	29.45	120.332	113.84751	0.008310341
291	29.5	110.367	113.82834	0.009060679
292	29.55	112.2	113.81008	0.008912656
293	29.6	116.904	113.79275	0.008554027
294	29.65	116.12	113.77639	0.008611781
295	29.7	115.882	113.76104	0.008629468
296	29.75	120.15	113.74673	0.00832293
297	29.8	120.48	113.73351	0.008300133
298	29.85	116.195	113.72141	0.008606222
299	29.9	115.199	113.71049	0.008680631
300	29.95	112.966	113.7008	0.008852221
301	30	117.46	113.69241	0.008513537
302	30.05	116.19	113.68536	0.008606593
303	30.1	113.871	113.67974	0.008781867
304	30.15	117.917	113.67561	0.008480541
305	30.2	113.669	113.67306	0.008797473
306	30.25	114.423	113.67218	0.008739502
307	30.3	115.764	113.67306	0.008638264
308	30.35	117.221	113.67581	0.008530895
309	30.4	123.303	113.68054	0.008110103
310	30.45	119.505	113.68738	0.008367851
311	30.5	120.092	113.69647	0.008326949
312	30.55	117.173	113.70796	0.008534389
313	30.6	116.076	113.72201	0.008615045
314	30.65	120.4	113.73881	0.008305648
315	30.7	117.125	113.75856	0.008537887
316	30.75	116.851	113.78149	0.008557907
317	30.8	122.086	113.80782	0.008190947
318	30.85	116.876	113.83785	0.008556077
319	30.9	114.537	113.87187	0.008730803
320	30.95	119.342	113.91021	0.00837928
321	31	116.904	113.95325	0.008554027
322	31.05	118.237	114.0014	0.008457589
323	31.1	117.29	114.05514	0.008525876
324	31.15	116.042	114.11498	0.00861757
325	31.2	114.693	114.18152	0.008718928
326	31.25	114.857	114.25543	0.008706478
327	31.3	117.081	114.33745	0.008541095
328	31.35	115.131	114.42845	0.008685758
329	31.4	116.183	114.5294	0.008607111
330	31.45	117.376	114.64143	0.008519629
331	31.5	119.939	114.76581	0.008337572
332	31.55	115.715	114.90403	0.008641922
333	31.6	118.608	115.0578	0.008431134
334	31.65	119.205	115.22913	0.00838891
335	31.7	114.786	115.42035	0.008711864
336	31.75	120.313	115.6342	0.008311654
337	31.8	117.921	115.87395	0.008480254
338	31.85	120.422	116.14345	0.00830413
339	31.9	116.922	116.44733	0.00855271
340	31.95	121.877	116.79119	0.008204994
341	32	119.092	117.18181	0.00839687
342	32.05	121.822	117.62752	0.008208698
343	32.1	120.248	118.13866	0.008316147
344	32.15	122.37	118.7282	0.008171938
345	32.2	124.595	119.41283	0.008026004
346	32.25	120.349	120.21486	0.008309168
347	32.3	121.371	121.16618	0.0082392
348	32.35	122.716	122.31666	0.008148897
349	32.4	130.001	123.75091	0.007692249
350	32.45	130.027	125.61858	0.00769071
351	32.5	131.424	128.18128	0.00760896
352	32.55	129.736	131.87287	0.007707961
353	32.6	138.654	137.36058	0.007212197
354	32.65	150.009	145.58791	0.006666267
355	32.7	156.276	157.78289	0.006398935
356	32.75	160.237	175.42629	0.006240756
357	32.8	180.529	200.20943	0.005539276
358	32.85	203.822	234.05122	0.004906242
359	32.9	241.433	279.09251	0.004141936
360	32.95	285.081	337.26943	0.003507775
361	33	356.04	409.04909	0.002808673
362	33.05	432.525	491.38447	0.002312005
363	33.1	520.56	575.70835	0.001921008
364	33.15	608.648	647.30167	0.001642986
365	33.2	656.443	687.4149	0.001523362
366	33.25	666.509	680.35477	0.001500355
367	33.3	611.109	626.40217	0.001636369
368	33.35	533.322	546.88954	0.00187504
369	33.4	451.302	469.05048	0.002215811
370	33.45	413.237	411.13727	0.002419919
371	33.5	394.636	378.84166	0.002533981
372	33.55	387.176	367.5493	0.002582805
373	33.6	387.468	366.00384	0.002580858
374	33.65	384.286	360.73478	0.002602229
375	33.7	348.772	341.38055	0.002867203
376	33.75	310.294	306.44974	0.00322275
377	33.8	260.146	263.52127	0.003843995
378	33.85	218.394	221.99457	0.00457888
379	33.9	187.104	187.80014	0.005344621
380	33.95	173.995	162.90336	0.005747292
381	34	154.263	146.49191	0.006482436
382	34.05	129.786	136.42482	0.007704991
383	34.1	131.707	130.43567	0.007592611
384	34.15	126.131	126.78381	0.007928265
385	34.2	117.431	124.38289	0.008515639
386	34.25	114.451	122.6499	0.008737364
387	34.3	119.692	121.30087	0.008354777
388	34.35	115.569	120.20054	0.008652839
389	34.4	116.569	119.27958	0.00857861
390	34.45	114.155	118.49697	0.008760019
391	34.5	108.839	117.82495	0.009187883
392	34.55	116.962	117.24306	0.008549785
393	34.6	117.238	116.7356	0.008529658
394	34.65	109.675	116.29024	0.009117848
395	34.7	117.243	115.89719	0.008529294
396	34.75	117.431	115.54857	0.008515639
397	34.8	111.802	115.23798	0.008944384
398	34.85	109.029	114.96019	0.009171872
399	34.9	111.074	114.71087	0.009003007
400	34.95	112.596	114.4864	0.00888131
401	35	108.336	114.28379	0.009230542
402	35.05	114.052	114.1005	0.00876793
403	35.1	114.404	113.93436	0.008740953
404	35.15	117.163	113.78356	0.008535118
405	35.2	115.639	113.64653	0.008647602
406	35.25	117.087	113.52192	0.008540658
407	35.3	113.618	113.40859	0.008801422
408	35.35	116.024	113.30554	0.008618906
409	35.4	110.167	113.21189	0.009077128
410	35.45	113.197	113.12691	0.008834156
411	35.5	113.275	113.04994	0.008828073
412	35.55	119.706	112.98042	0.0083538
413	35.6	116.493	112.91785	0.008584207
414	35.65	117.4	112.86181	0.008517888
415	35.7	114.133	112.81194	0.008761708
416	35.75	111.862	112.76791	0.008939586
417	35.8	110.55	112.72946	0.009045681
418	35.85	108.462	112.69635	0.009219819
419	35.9	111.006	112.6684	0.009008522
420	35.95	115.257	112.64543	0.008676263
421	36	113.423	112.62731	0.008816554
422	36.05	106.84	112.61396	0.00935979
423	36.1	115.882	112.60529	0.008629468
424	36.15	116.346	112.60126	0.008595053
425	36.2	116.705	112.60183	0.008568613
426	36.25	117.933	112.60702	0.008479391
427	36.3	115.384	112.61684	0.008666713
428	36.35	118.891	112.63135	0.008411066
429	36.4	117.631	112.6506	0.00850116
430	36.45	112.125	112.67469	0.008918618
431	36.5	117.971	112.70373	0.00847666
432	36.55	123.645	112.73788	0.00808767
433	36.6	113.854	112.77729	0.008783178
434	36.65	112.011	112.82215	0.008927695
435	36.7	112.224	112.87269	0.00891075
436	36.75	111.845	112.92917	0.008940945
437	36.8	112.723	112.99187	0.008871304
438	36.85	112.07	113.06111	0.008922995
439	36.9	119.216	113.13725	0.008388136
440	36.95	114.82	113.2207	0.008709284
441	37	116.466	113.31192	0.008586197
442	37.05	115.527	113.4114	0.008655985
443	37.1	118.631	113.51972	0.0084295
444	37.15	114.786	113.63751	0.008711864
445	37.2	121.302	113.76547	0.008243887
446	37.25	117.229	113.90439	0.008530312
447	37.3	121.752	114.05516	0.008213417
448	37.35	118.394	114.21877	0.008446374
449	37.4	120.044	114.39632	0.008330279
450	37.45	123.156	114.58909	0.008119783
451	37.5	106.059	114.79847	0.009428714
452	37.55	111.518	115.02608	0.008967162
453	37.6	118.184	115.27373	0.008461382
454	37.65	119.42	115.5435	0.008373807
455	37.7	115.468	115.83774	0.008660408
456	37.75	117.889	116.15915	0.008482556
457	37.8	112.671	116.51086	0.008875398
458	37.85	119.563	116.89645	0.008363791
459	37.9	120.702	117.3201	0.008284867
460	37.95	114.875	117.78665	0.008705114
461	38	114.985	118.30179	0.008696787
462	38.05	122.684	118.8722	0.008151022
463	38.1	121.077	119.50574	0.008259207
464	38.15	125.824	120.21236	0.007947609
465	38.2	132.693	121.00377	0.007536193
466	38.25	131.915	121.89428	0.007580639
467	38.3	130.504	122.90271	0.0076626
468	38.35	132.923	124.05743	0.007523153
469	38.4	129.319	125.35174	0.007732816
470	38.45	131.502	126.83662	0.007604447
471	38.5	133.229	128.55179	0.007505873
472	38.55	138.944	130.5484	0.007197144
473	38.6	136.464	132.8945	0.00732794
474	38.65	131.165	135.68568	0.007623985
475	38.7	134.614	139.06801	0.007428648
476	38.75	140.907	143.28664	0.00709688
477	38.8	150.853	148.77898	0.00662897
478	38.85	154.212	156.36558	0.00648458
479	38.9	164.857	167.51054	0.006065863
480	38.95	183.82	184.6048	0.005440104
481	39	205.647	211.40664	0.004862702
482	39.05	249.657	253.34192	0.004005496
483	39.1	301.656	317.58801	0.003315034
484	39.15	386.183	412.55469	0.002589446
485	39.2	492.204	546.20598	0.002031678
486	39.25	647.754	723.04868	0.001543796
487	39.3	861.959	939.0448	0.001160148
488	39.35	1100.961	1175.51779	0.000908297
489	39.4	1331.351	1395.22156	0.000751117
490	39.45	1511.148	1544.54401	0.000661749
491	39.5	1524.529	1567.43421	0.00065594
492	39.55	1430.043	1439.21769	0.00069928
493	39.6	1184.827	1198.52613	0.000844005
494	39.65	903.468	922.00509	0.001106846
495	39.7	662.126	672.05024	0.001510287
496	39.75	487.808	479.07874	0.002049987
497	39.8	364.995	347.58542	0.002739764
498	39.85	285.087	266.81358	0.003507701
499	39.9	240.015	220.9881	0.004166406
500	39.95	200.666	196.13262	0.004983405
501	40	181.446	182.76963	0.005511282
502	40.05	169.014	175.65784	0.00591667
503	40.1	172.206	172.47174	0.005806999
504	40.15	168.886	172.64584	0.005921154
505	40.2	169.336	176.75036	0.005905419
506	40.25	180.008	186.2932	0.005555309
507	40.3	198.17	203.71847	0.005046172
508	40.35	223.135	232.35735	0.004481592
509	40.4	247.721	276.04165	0.004036799
510	40.45	308.585	338.10706	0.003240598
511	40.5	386.74	419.63711	0.002585717
512	40.55	478.725	516.98621	0.002088882
513	40.6	583.122	619.29957	0.001714907
514	40.65	693.756	707.57369	0.001441429
515	40.7	762.169	757.06577	0.001312045
516	40.75	773.779	746.27984	0.001292359
517	40.8	683.934	674.15468	0.001462129
518	40.85	561.124	566.94416	0.001782137
519	40.9	457.893	458.7973	0.002183916
520	40.95	383.463	373.5805	0.002607814
521	41	341.377	322.90171	0.002929313
522	41.05	322.605	310.27167	0.003099766
523	41.1	340.665	335.73246	0.002935435
524	41.15	387.75	399.02321	0.002578981
525	41.2	472.954	499.92991	0.002114371
526	41.25	599.767	635.62374	0.001667314
527	41.3	768	795.94761	0.001302083
528	41.35	968.986	958.94286	0.001032007
529	41.4	1126.597	1089.73825	0.000887629
530	41.45	1211.962	1146.13534	0.000825108
531	41.5	1151.383	1097.00578	0.000868521
532	41.55	975.034	951.14156	0.001025605
533	41.6	738.063	757.8488	0.001354898
534	41.65	537.045	569.04997	0.001862041
535	41.7	384.889	415.17956	0.002598152
536	41.75	291.781	305.49413	0.003427228
537	41.8	231.255	235.3571	0.004324231
538	41.85	185.048	194.0084	0.005404003
539	41.9	166.431	170.57257	0.006008496
540	41.95	148.298	157.02498	0.006743179
541	42	134.93	148.5542	0.00741125
542	42.05	127.538	142.68255	0.0078408
543	42.1	128.511	138.24844	0.007781435
544	42.15	121.778	134.71798	0.008211664
545	42.2	120.546	131.82391	0.008295588
546	42.25	122.144	129.41027	0.008187058
547	42.3	121.64	127.37276	0.00822098
548	42.35	118.646	125.63575	0.008428434
549	42.4	116.82	124.14217	0.008560178
550	42.45	113.686	122.8481	0.008796158
551	42.5	117.008	121.71918	0.008546424
552	42.55	115.712	120.72827	0.008642146
553	42.6	113.665	119.85367	0.008797783
554	42.65	115.101	119.07785	0.008688022
555	42.7	121.249	118.38657	0.008247491
556	42.75	118.502	117.7681	0.008438676
557	42.8	119.426	117.21277	0.008373386
558	42.85	116.744	116.7125	0.008565751
559	42.9	114.43	116.26053	0.008738967
560	42.95	118.009	115.85115	0.00847393
561	43	119.195	115.47951	0.008389614
562	43.05	120.323	115.14149	0.008310963
563	43.1	115.747	114.83355	0.008639533
564	43.15	115.785	114.55264	0.008636697
565	43.2	115.113	114.29613	0.008687116
566	43.25	114.431	114.06175	0.008738891
567	43.3	120.409	113.8475	0.008305027
568	43.35	117.422	113.65166	0.008516292
569	43.4	120.441	113.47271	0.00830282
570	43.45	116.597	113.30932	0.00857655
571	43.5	111.727	113.16033	0.008950388
572	43.55	111.988	113.02471	0.008929528
573	43.6	117.551	112.90156	0.008506946
574	43.65	121.966	112.79008	0.008199006
575	43.7	116.661	112.68957	0.008571845
576	43.75	120.775	112.59941	0.008279859
577	43.8	121.871	112.51907	0.008205398
578	43.85	120.126	112.44807	0.008324593
579	43.9	118.034	112.38599	0.008472135
580	43.95	116.563	112.33248	0.008579052
581	44	117.104	112.28722	0.008539418
582	44.05	119.041	112.24996	0.008400467
583	44.1	110.592	112.22048	0.009042245
584	44.15	116.012	112.19858	0.008619798
585	44.2	115.389	112.18413	0.008666337
586	44.25	119.458	112.17702	0.008371143
587	44.3	117.224	112.17766	0.008530676
588	44.35	118.562	112.18663	0.008434406
589	44.4	109.487	112.20503	0.009133504
590	44.45	116.079	112.24133	0.008614823
591	44.5	113.418	112.27151	0.008816943
592	44.55	122.045	112.30804	0.008193699
593	44.6	116.26	112.35202	0.008601411
594	44.65	116.186	112.40359	0.008606889
595	44.7	118.785	112.46292	0.008418571
596	44.75	122.45	112.53021	0.008166599
597	44.8	117.521	112.6057	0.008509118
598	44.85	117.98	112.68965	0.008476013
599	44.9	111.233	112.78238	0.008990138
600	44.95	113.935	112.88424	0.008776934
601	45	115.603	112.99562	0.008650295
602	45.05	117.408	113.11696	0.008517307
603	45.1	113.39	113.24874	0.00881912
604	45.15	116.54	113.39192	0.008580745
605	45.2	111.927	113.54821	0.008934395
606	45.25	117.937	113.71955	0.008479103
607	45.3	121.222	113.9132	0.008249328
608	45.35	115.555	114.12111	0.008653888
609	45.4	114.886	114.32953	0.008704281
610	45.45	113.613	114.55445	0.00880181
611	45.5	117.682	114.7982	0.008497476
612	45.55	117.876	115.06392	0.008483491
613	45.6	119.584	115.36651	0.008362323
614	45.65	119.886	115.67191	0.008341258
615	45.7	121.321	115.99412	0.008242596
616	45.75	117.402	116.3408	0.008517742
617	45.8	121.947	116.71403	0.008200284
618	45.85	119.452	117.11615	0.008371563
619	45.9	125.46	117.54977	0.007970668
620	45.95	115.455	118.01783	0.008661383
621	46	122.349	118.52362	0.00817334
622	46.05	122.247	119.07086	0.00818016
623	46.1	123.657	119.66378	0.008086885
624	46.15	119.012	120.30715	0.008402514
625	46.2	123.954	121.00641	0.008067509
626	46.25	118.876	121.76778	0.008412127
627	46.3	117.567	122.59838	0.008505788
628	46.35	116.661	123.50639	0.008571845
629	46.4	116.713	124.50126	0.008568026
630	46.45	123.854	125.59396	0.008074023
631	46.5	133.197	126.79723	0.007507677
632	46.55	133.407	128.12601	0.007495859
633	46.6	134.081	129.59784	0.007458178
634	46.65	136.982	131.23345	0.007300229
635	46.7	146.85	133.05749	0.00680967
636	46.75	160.258	135.09943	0.006239938
637	46.8	160.932	137.39476	0.006213805
638	46.85	162.228	139.98646	0.006164164
639	46.9	168.689	142.92706	0.005928069
640	46.95	167.859	146.2812	0.005957381
641	47	174.239	150.1292	0.005739243
642	47.05	183.69	154.57179	0.005443954
643	47.1	191.254	159.73667	0.005228649
644	47.15	188.749	165.78788	0.005298041
645	47.2	175.639	172.94011	0.005693496
646	47.25	189.58	181.48315	0.005274818
647	47.3	189.859	191.83078	0.005267067
648	47.35	194.811	204.62899	0.00513318
649	47.4	205.874	220.99994	0.00485734
650	47.45	241.473	243.06156	0.00414125
651	47.5	286.643	274.92558	0.00348866
652	47.55	346.366	324.37304	0.002887119
653	47.6	446.896	405.21689	0.002237657
654	47.65	599.218	539.80968	0.001668842
655	47.7	830.759	760.03793	0.001203719
656	47.75	1208.71	1103.50535	0.000827328
657	47.8	1735.795	1600.78464	0.000576105
658	47.85	2432.506	2253.12489	0.000411099
659	47.9	3185.308	3008.05048	0.000313941
660	47.95	3862.412	3744.7666	0.000258906
661	48	4296.837	4280.53459	0.000232729
662	48.05	4329.29	4417.45025	0.000230985
663	48.1	3847.354	4062.35334	0.000259919
664	48.15	3077.576	3340.11861	0.000324931
665	48.2	2193.002	2501.60729	0.000455996
666	48.25	1534.249	1745.75745	0.000651785
667	48.3	1044.099	1166.03451	0.000957764
668	48.35	745.301	773.7063	0.00134174
669	48.4	532.886	533.47781	0.001876574
670	48.45	403.614	395.93718	0.002477615
671	48.5	303.674	318.52973	0.003293005
672	48.55	247.59	272.93565	0.004038935
673	48.6	213.086	243.44422	0.004692941
674	48.65	195.265	222.38797	0.005121245
675	48.7	169.113	206.24974	0.005913206
676	48.75	153.168	193.36962	0.006528779
677	48.8	144.496	182.8498	0.006920607
678	48.85	137.274	174.13155	0.007284701
679	48.9	138.031	166.82567	0.007244749
680	48.95	131.052	160.64531	0.007630559
681	49	117.943	155.37306	0.008478672
682	49.05	119.212	150.84157	0.008388417
683	49.1	118.795	146.92136	0.008417863
684	49.15	119.988	143.51111	0.008334167
685	49.2	124.693	140.53929	0.008019696
686	49.25	125.921	137.90607	0.007941487
687	49.3	126.147	135.57687	0.007927259
688	49.35	123.743	133.50762	0.008081265
689	49.4	122.791	131.662	0.008143919
690	49.45	122.762	130.00983	0.008145843
691	49.5	119.161	128.52591	0.008392007
692	49.55	118.18	127.18905	0.008461669
693	49.6	117.8	125.98133	0.008488964
694	49.65	117.543	124.88755	0.008507525
695	49.7	116.11	123.89472	0.008612523
696	49.75	112.352	122.99171	0.008900598
697	49.8	119.514	122.16893	0.008367221
698	49.85	117.935	121.41811	0.008479247
699	49.9	120.958	120.73207	0.008267332
700	49.95	112.189	120.10456	0.00891353
701	50	112.98	119.53015	0.008851124
702	50.05	110.902	119.00407	0.00901697
703	50.1	114.702	118.52216	0.008718244
704	50.15	115.457	118.08076	0.008661233
705	50.2	111.19	117.67666	0.008993615
706	50.25	107.683	117.30704	0.009286517
707	50.3	115.077	116.96942	0.008689834
708	50.35	117.007	116.66162	0.008546497
709	50.4	112.797	116.38174	0.008865484
710	50.45	108.876	116.12811	0.009184761
711	50.5	112.758	115.89928	0.00886855
712	50.55	109.593	115.694	0.00912467
713	50.6	116.047	115.5112	0.008617198
714	50.65	114.181	115.34998	0.008758025
715	50.7	113.443	115.20959	0.008815
716	50.75	114.857	115.08944	0.008706478
717	50.8	116.62	114.98907	0.008574859
718	50.85	115.418	114.90817	0.00866416
719	50.9	115.451	114.84656	0.008661683
720	50.95	115.997	114.80419	0.008620913
721	51	112.883	114.78117	0.00885873
722	51.05	115.646	114.77775	0.008647078
723	51.1	113.909	114.79432	0.008778938
724	51.15	116.89	114.83144	0.008555052
725	51.2	117.366	114.88987	0.008520355
726	51.25	115.521	114.97054	0.008656435
727	51.3	115.361	115.0746	0.008668441
728	51.35	114.421	115.20346	0.008739654
729	51.4	112.361	115.35881	0.008899885
730	51.45	121.422	115.54267	0.00823574
731	51.5	119.303	115.75741	0.008382019
732	51.55	113.588	116.00589	0.008803747
733	51.6	110.926	116.29147	0.009015019
734	51.65	118.823	116.61815	0.008415879
735	51.7	114.748	116.9907	0.008714749
736	51.75	120.782	117.41481	0.008279379
737	51.8	121.507	117.89734	0.008229979
738	51.85	118.121	118.44656	0.008465895
739	51.9	120.747	119.07251	0.008281779
740	51.95	125.718	119.7875	0.00795431
741	52	116.653	120.60675	0.008572433
742	52.05	117.032	121.5492	0.008544672
743	52.1	122.318	122.63871	0.008175412
744	52.15	123.717	123.90571	0.008082964
745	52.2	129.468	125.38965	0.007723916
746	52.25	129.886	127.14299	0.007699059
747	52.3	125.433	129.23888	0.007972384
748	52.35	130.727	131.78798	0.007649529
749	52.4	134.804	134.9779	0.007418178
750	52.45	133.222	139.16256	0.007506268
751	52.5	142.578	145.04667	0.007013705
752	52.55	154.719	154.01612	0.00646333
753	52.6	174.876	168.62143	0.005718338
754	52.65	208.17	193.07587	0.004803766
755	52.7	244.941	233.35363	0.004082616
756	52.75	304.452	296.16152	0.00328459
757	52.8	397.182	386.04147	0.002517737
758	52.85	508.319	500.75104	0.001967269
759	52.9	651.63	626.8969	0.001534613
760	52.95	770.057	738.58031	0.001298605
761	53	820.789	801.43097	0.00121834
762	53.05	781.227	787.39739	0.001280038
763	53.1	680.383	699.64144	0.00146976
764	53.15	537.563	574.55487	0.001860247
765	53.2	413.117	451.2388	0.002420622
766	53.25	313.836	352.61355	0.003186378
767	53.3	264.237	286.29138	0.003784481
768	53.35	244.08	250.62589	0.004097017
769	53.4	242.788	241.14292	0.00411882
770	53.45	256.033	255.86517	0.003905747
771	53.5	309.596	298.32438	0.003230016
772	53.55	403.015	377.6793	0.002481297
773	53.6	528.717	505.39824	0.001891371
774	53.65	724.875	687.91095	0.001379548
775	53.7	977.392	916.54771	0.001023131
776	53.75	1211.535	1159.18242	0.000825399
777	53.8	1413.082	1359.21895	0.000707673
778	53.85	1464.701	1447.54887	0.000682733
779	53.9	1364.617	1379.44184	0.000732806
780	53.95	1146.53	1181.00388	0.000872197
781	54	898.066	932.30224	0.001113504
782	54.05	685.149	705.327	0.001459537
783	54.1	558.412	539.70264	0.001790792
784	54.15	496.24	448.62433	0.002015154
785	54.2	495.807	428.98551	0.002016914
786	54.25	529.288	468.90118	0.001889331
787	54.3	618.532	550.46219	0.001616731
788	54.35	718.513	648.85781	0.001391763
789	54.4	803.666	731.78756	0.001244298
790	54.45	796.602	763.92855	0.001255332
791	54.5	744.582	723.35776	0.001343035
792	54.55	603.787	622.34611	0.001656213
793	54.6	456.361	497.98374	0.002191248
794	54.65	345.618	382.46448	0.002893368
795	54.7	262.867	291.90121	0.003804205
796	54.75	208.659	229.33283	0.004792508
797	54.8	176.63	190.13904	0.005661552
798	54.85	154.112	167.05852	0.006488787
799	54.9	143.889	153.59065	0.006949802
800	54.95	133.923	145.32075	0.007466977
801	55	129.131	139.80891	0.007744074
802	55.05	123.967	135.65463	0.008066663
803	55.1	124.222	132.3725	0.008050104
804	55.15	121.471	129.68419	0.008232418
805	55.2	113.78	127.43691	0.008788891
806	55.25	114.746	125.53315	0.008714901
807	55.3	119.404	123.90368	0.008374929
808	55.35	109.763	122.4968	0.009110538
809	55.4	115.145	121.2728	0.008684702
810	55.45	111.157	120.20058	0.008996285
811	55.5	114.413	119.25536	0.008740266
812	55.55	118.392	118.41688	0.008446517
813	55.6	114.655	117.66667	0.008721818
814	55.65	113.926	116.99231	0.008777628
815	55.7	114.889	116.3989	0.008704053
816	55.75	112.741	115.86552	0.008869888
817	55.8	114.753	115.38481	0.008714369
818	55.85	107.227	114.95055	0.009326009
819	55.9	109.229	114.55781	0.009155078
820	55.95	115.242	114.20814	0.008677392
821	56	117.146	113.91793	0.008536356
822	56.05	112.421	113.66314	0.008895135
823	56.1	109.524	113.39482	0.009130419
824	56.15	104.455	113.14981	0.009573501
825	56.2	113.328	112.92533	0.008823945
826	56.25	116.716	112.71775	0.008567806
827	56.3	105.485	112.52013	0.009480021
828	56.35	111.155	112.34698	0.008996446
829	56.4	113.018	112.20127	0.008848148
830	56.45	113.28	112.07091	0.008827684
831	56.5	111.908	111.95498	0.008935912
832	56.55	110.288	111.85273	0.00906717
833	56.6	114.094	111.7635	0.008764703
834	56.65	114.88	111.68675	0.008704735
835	56.7	109.984	111.62202	0.009092232
836	56.75	111.094	111.56894	0.009001386
837	56.8	112.992	111.52724	0.008850184
838	56.85	114.212	111.49671	0.008755647
839	56.9	112.622	111.47724	0.00887926
840	56.95	114.877	111.46877	0.008704963
841	57	114.591	111.47134	0.008726689
842	57.05	115.037	111.48505	0.008692855
843	57.1	115.916	111.51009	0.008626937
844	57.15	116.472	111.54674	0.008585755
845	57.2	107.995	111.59537	0.009259688
846	57.25	113.396	111.65642	0.008818653
847	57.3	108.376	111.73048	0.009227135
848	57.35	110.133	111.81823	0.009079931
849	57.4	117.738	111.9205	0.008493435
850	57.45	113.136	112.03826	0.00883892
851	57.5	115.208	112.17265	0.008679953
852	57.55	112.448	112.32503	0.008892999
853	57.6	115.296	112.49698	0.008673328
854	57.65	110.394	112.69036	0.009058463
855	57.7	112.553	112.90736	0.008884703
856	57.75	114.058	113.15054	0.008767469
857	57.8	116.001	113.42295	0.008620615
858	57.85	113.451	113.72822	0.008814378
859	57.9	120.129	114.07066	0.008324385
860	57.95	113.386	114.45546	0.008819431
861	58	114.527	114.88887	0.008731565
862	58.05	113.889	115.37854	0.008780479
863	58.1	115.314	115.93382	0.008671974
864	58.15	112.949	116.56633	0.008853553
865	58.2	117.145	117.29059	0.008536429
866	58.25	123.71	118.12499	0.008083421
867	58.3	128.38	119.09314	0.007789375
868	58.35	125.769	120.22655	0.007951085
869	58.4	121.561	121.57308	0.008226323
870	58.45	120.213	123.1995	0.008318568
871	58.5	120.735	125.15972	0.008282602
872	58.55	126.195	127.63904	0.007924244
873	58.6	128.203	130.95925	0.007800129
874	58.65	134.241	135.78339	0.007449289
875	58.7	146.673	143.42736	0.006817887
876	58.75	162.167	156.25901	0.006166483
877	58.8	175.743	177.95226	0.005690127
878	58.85	209.917	213.11395	0.004763788
879	58.9	272.778	265.715	0.003665985
880	58.95	345.074	336.12167	0.002897929
881	59	430.18	417.52016	0.002324608
882	59.05	510.804	493.85975	0.001957698
883	59.1	555.978	541.65754	0.001798632
884	59.15	558.698	539.98602	0.001789876
885	59.2	493.793	488.52887	0.00202514
886	59.25	404.692	410.53109	0.002471015
887	59.3	324.325	332.07898	0.003083327
888	59.35	258.855	268.63577	0.003863167
889	59.4	225.948	225.38278	0.004425797
890	59.45	205.913	201.12269	0.00485642
891	59.5	200.477	192.36123	0.004988103
892	59.55	197.203	196.66284	0.005070917
893	59.6	219.136	214.72508	0.004563376
894	59.65	251.668	250.97391	0.003973489
895	59.7	311.642	312.27714	0.00320881
896	59.75	415.628	405.24709	0.002405998
897	59.8	549.746	531.0391	0.001819022
898	59.85	710.786	680.13873	0.001406893
899	59.9	872.413	829.94779	0.001146246
900	59.95	1023.867	948.8906	0.000976689
901	60	1055.939	1013.08019	0.000947024
902	60.05	1061.849	1031.61652	0.000941753
903	60.1	1070.424	1039.81404	0.000934209
904	60.15	1081.363	1057.67664	0.000924759
905	60.2	1097.093	1069.69359	0.0009115
906	60.25	1076.916	1036.62708	0.000928578
907	60.3	981.366	930.77349	0.001018988
908	60.35	796.85	769.12403	0.001254941
909	60.4	596.327	595.68138	0.001676932
910	60.45	447.341	444.63119	0.002235431
911	60.5	325.117	330.71747	0.003075816
912	60.55	252.367	254.08563	0.003962483
913	60.6	202.22	206.89851	0.004945109
914	60.65	173.555	179.27344	0.005761862
915	60.7	152.189	163.03153	0.006570777
916	60.75	141.336	152.8688	0.007075338
917	60.8	138.934	145.91219	0.007197662
918	60.85	125.33	140.71313	0.007978936
919	60.9	124.619	136.59545	0.008024459
920	60.95	123.637	133.24575	0.008088194
921	61	124.382	130.47166	0.008039749
922	61.05	121.257	128.14607	0.008246947
923	61.1	114.932	126.17755	0.008700797
924	61.15	119.93	124.49751	0.008338197
925	61.2	118.459	123.05333	0.008441739
926	61.25	117.022	121.80396	0.008545402
927	61.3	120.394	120.7171	0.008306062
928	61.35	119.265	119.76705	0.00838469
929	61.4	116.276	118.93311	0.008600227
930	61.45	119.522	118.19853	0.008366661
931	61.5	115.164	117.54962	0.008683269
932	61.55	116.123	116.97511	0.008611558
933	61.6	111.469	116.46569	0.008971104
934	61.65	115.398	116.01361	0.008665661
935	61.7	122.196	115.6124	0.008183574
936	61.75	114.85	115.25668	0.008707009
937	61.8	116.943	114.94191	0.008551175
938	61.85	115.602	114.6643	0.008650369
939	61.9	116.163	114.4207	0.008608593
940	61.95	113.9	114.20849	0.008779631
941	62	116.92	114.02552	0.008552857
942	62.05	117.309	113.87006	0.008524495
943	62.1	112.951	113.74078	0.008853397
944	62.15	114.053	113.63666	0.008767854
945	62.2	121.195	113.55706	0.008251165
946	62.25	116.49	113.50164	0.008584428
947	62.3	116.213	113.47038	0.008604889
948	62.35	119.577	113.46361	0.008362812
949	62.4	116.077	113.482	0.008614971
950	62.45	116.487	113.52665	0.008584649
951	62.5	113.298	113.59905	0.008826281
952	62.55	117.214	113.70101	0.008531404
953	62.6	120.754	113.83272	0.008281299
954	62.65	118.973	113.99593	0.008405268
955	62.7	121.792	114.19295	0.00821072
956	62.75	117.612	114.42518	0.008502534
957	62.8	122.54	114.68751	0.008160601
958	62.85	125.519	114.93271	0.007966921
959	62.9	128.424	115.3706	0.007786707
960	62.95	120.431	115.89158	0.00830351
961	63	124.499	116.51231	0.008032193
962	63.05	124.089	117.2543	0.008058732
963	63.1	125.167	118.14563	0.007989326
964	63.15	127.369	119.22351	0.007851204
965	63.2	122.634	120.53871	0.008154345
966	63.25	123.432	122.16415	0.008101627
967	63.3	121.806	124.21529	0.008209776
968	63.35	133.087	126.90097	0.007513882
969	63.4	135.567	130.64483	0.007376426
970	63.45	142.135	136.33885	0.007035565
971	63.5	156.417	145.77547	0.006393167
972	63.55	174.932	162.1771	0.005716507
973	63.6	201.721	190.45401	0.004957342
974	63.65	259.09	236.49747	0.003859663
975	63.7	320.451	304.8248	0.003120602
976	63.75	396.851	394.55091	0.002519837
977	63.8	502.483	494.80005	0.001990117
978	63.85	560.689	582.08959	0.00178352
979	63.9	597.303	624.60265	0.001674192
980	63.95	580.127	600.61507	0.00172376
981	64	492.52	520.84441	0.002030374
982	64.05	418.931	418.97437	0.002387028
983	64.1	327.188	323.66756	0.003056347
984	64.15	251.189	249.06148	0.003981066
985	64.2	210.167	197.86328	0.004758121
986	64.25	175.583	166.18525	0.005695312
987	64.3	156.425	147.8973	0.00639284
988	64.35	147.15	137.53454	0.006795787
989	64.4	139.288	131.40045	0.007179369
990	64.45	133.765	127.42565	0.007475797
991	64.5	123.496	124.5934	0.008097428
992	64.55	124.713	122.43335	0.00801841
993	64.6	118.62	120.72816	0.008430282
994	64.65	125.136	119.36068	0.007991305
995	64.7	127.423	118.21868	0.007847877
996	64.75	124.205	117.26985	0.008051206
997	64.8	120.755	116.47461	0.008281231
998	64.85	122.196	115.80312	0.008183574
999	64.9	113.928	115.23245	0.008777473
1000	64.95	114.002	114.74478	0.008771776
1001	65	114.829	114.32608	0.008708601
1002	65.05	120.153	113.96523	0.008322722
1003	65.1	118.112	113.65328	0.00846654
1004	65.15	112.9	113.38301	0.008857396
1005	65.2	120.275	113.14853	0.00831428
1006	65.25	116.66	112.94501	0.008571918
1007	65.3	120.85	112.77174	0.008274721
1008	65.35	120.707	112.62528	0.008284524
1009	65.4	120.791	112.49317	0.008278762
1010	65.45	119.646	112.37954	0.008357989
1011	65.5	116.375	112.28241	0.008592911
1012	65.55	124.799	112.2001	0.008012885
1013	65.6	117.866	112.13118	0.008484211
1014	65.65	117.622	112.07443	0.008501811
1015	65.7	114.459	112.02881	0.008736753
1016	65.75	114.247	111.99344	0.008752965
1017	65.8	115.768	111.96755	0.008637966
1018	65.85	118.135	111.95049	0.008464892
1019	65.9	112.137	111.9417	0.008917663
1020	65.95	119.261	111.9407	0.008384971
1021	66	118.779	111.94709	0.008418997
1022	66.05	124.595	111.96053	0.008026004
1023	66.1	115.337	111.98074	0.008670245
1024	66.15	117.173	112.00749	0.008534389
1025	66.2	114.564	112.04058	0.008728746
1026	66.25	112.351	112.07988	0.008900677
1027	66.3	117.416	112.12529	0.008516727
1028	66.35	120.705	112.17672	0.008284661
1029	66.4	119.807	112.23414	0.008346758
1030	66.45	119.919	112.29756	0.008338962
1031	66.5	116.77	112.36699	0.008563843
1032	66.55	120.885	112.44249	0.008272325
1033	66.6	117.61	112.52416	0.008502678
1034	66.65	118.038	112.61211	0.008471848
1035	66.7	115.839	112.70648	0.008632671
1036	66.75	116.369	112.80745	0.008593354
1037	66.8	124.965	112.91524	0.008002241
1038	66.85	112.09	113.03009	0.008921402
1039	66.9	116.306	113.15227	0.008598009
1040	66.95	112.128	113.2821	0.008918379
1041	67	114.366	113.41993	0.008743857
1042	67.05	117.672	113.56616	0.008498198
1043	67.1	119.37	113.72123	0.008377314
1044	67.15	114.247	113.88564	0.008752965
1045	67.2	111.954	114.05993	0.00893224
1046	67.25	115.639	114.2447	0.008647602
1047	67.3	110.878	114.44063	0.009018922
1048	67.35	119.083	114.64846	0.008397504
1049	67.4	121.594	114.86902	0.00822409
1050	67.45	124.441	115.10323	0.008035937
1051	67.5	121.766	115.3521	0.008212473
1052	67.55	117.394	115.6166	0.008518323
1053	67.6	117.59	115.89736	0.008504125
1054	67.65	119.095	116.1954	0.008396658
1055	67.7	117.002	116.51138	0.008546862
1056	67.75	111.789	116.84349	0.008945424
1057	67.8	122.792	117.19361	0.008143853
1058	67.85	120.881	117.58567	0.008272599
1059	67.9	119.476	118.00624	0.008369882
1060	67.95	117.641	118.45816	0.008500438
1061	68	118.327	118.94466	0.008451157
1062	68.05	119.7	119.4694	0.008354219
1063	68.1	123.015	120.03657	0.00812909
1064	68.15	117.182	120.65096	0.008533734
1065	68.2	119.562	121.31811	0.008363861
1066	68.25	123.754	122.04439	0.008080547
1067	68.3	124.609	122.83721	0.008025103
1068	68.35	127.261	123.70521	0.007857867
1069	68.4	122.452	124.65839	0.008166465
1070	68.45	128.734	125.70743	0.007767956
1071	68.5	127.796	126.86547	0.007824971
1072	68.55	136.659	128.14766	0.007317484
1073	68.6	138.893	129.57142	0.007199787
1074	68.65	139.103	131.21193	0.007188918
1075	68.7	131.232	133.04816	0.007620093
1076	68.75	135.195	135.10154	0.007396723
1077	68.8	133.418	137.43879	0.007495241
1078	68.85	140.112	140.1162	0.007137147
1079	68.9	142.955	143.20479	0.006995208
1080	68.95	154.829	146.79521	0.006458738
1081	69	151.09	151.00422	0.006618572
1082	69.05	151.045	155.98489	0.006620544
1083	69.1	153.952	161.94278	0.006495531
1084	69.15	146.974	169.1642	0.006803925
1085	69.2	151.926	178.07269	0.006582152
1086	69.25	164.383	189.44944	0.006083354
1087	69.3	181.59	204.73887	0.005506911
1088	69.35	204.082	227.03239	0.004899991
1089	69.4	243.366	262.71971	0.004109037
1090	69.45	318.161	323.78221	0.003143063
1091	69.5	405.035	429.43638	0.002468922
1092	69.55	589.17	604.35002	0.001697303
1093	69.6	844.646	870.32514	0.001183928
1094	69.65	1225.695	1230.71171	0.000815864
1095	69.7	1634.03	1650.8372	0.000611984
1096	69.75	2056.084	2040.89619	0.000486361
1097	69.8	2292	2262.39673	0.0004363
1098	69.85	2256.033	2204.20197	0.000443256
1099	69.9	1955.733	1895.08283	0.000511317
1100	69.95	1552.111	1476.40156	0.000644284
1101	70	1137.174	1075.23398	0.000879373
1102	70.05	821.42	756.74824	0.001217404
1103	70.1	607.392	536.42291	0.001646383
1104	70.15	465.289	400.37969	0.002149202
1105	70.2	380.625	323.80315	0.002627258
1106	70.25	328.547	283.80365	0.003043705
1107	70.3	296.489	264.90081	0.003372806
1108	70.35	293.747	259.24828	0.00340429
1109	70.4	292.28	265.17982	0.003421377
1110	70.45	305.964	286.45449	0.003268358
1111	70.5	359.779	332.55064	0.002779484
1112	70.55	431.253	418.53547	0.002318824
1113	70.6	574.929	561.94063	0.001739345
1114	70.65	774.932	774.62181	0.001290436
1115	70.7	1046.367	1050.08514	0.000955688
1116	70.75	1364.48	1349.34509	0.00073288
1117	70.8	1641.472	1592.19809	0.000609209
1118	70.85	1810.049	1676.93868	0.000552471
1119	70.9	1733.253	1555.22365	0.00057695
1120	70.95	1447.975	1287.82959	0.00069062
1121	71	1074.959	980.92954	0.000930268
1122	71.05	745.544	709.11765	0.001341302
1123	71.1	522.68	503.89836	0.001913216
1124	71.15	363.964	366.66628	0.002747524
1125	71.2	287.984	283.00681	0.003472415
1126	71.25	240.705	234.66366	0.004154463
1127	71.3	198.946	206.68308	0.00502649
1128	71.35	183.075	189.47365	0.005462242
1129	71.4	170.839	177.85081	0.005853464
1130	71.45	160.243	169.3069	0.006240522
1131	71.5	148.075	162.6693	0.006753334
1132	71.55	143.007	157.35321	0.006992665
1133	71.6	138.066	153.02405	0.007242913
1134	71.65	131.387	149.46293	0.007611103
1135	71.7	130.704	146.51432	0.007650875
1136	71.75	125.831	144.0631	0.007947167
1137	71.8	127.314	142.02236	0.007854596
1138	71.85	124.941	140.32576	0.008003778
1139	71.9	119.584	138.92234	0.008362323
1140	71.95	125.118	137.7729	0.007992455
1141	72	123.144	136.84742	0.008120574
1142	72.05	128.915	136.12325	0.007757049
1143	72.1	131.503	135.58375	0.007604389
1144	72.15	128.429	135.2175	0.007786403
1145	72.2	125.429	135.01769	0.007972638
1146	72.25	129.168	134.98183	0.007741856
1147	72.3	128.966	135.11177	0.007753982
1148	72.35	124.062	135.4139	0.008060486
1149	72.4	132.06	135.8997	0.007572316
1150	72.45	126.19	136.58662	0.007924558
1151	72.5	132.347	137.49946	0.007555895
1152	72.55	129.645	138.69977	0.007713371
1153	72.6	136.292	140.18125	0.007337188
1154	72.65	135.043	142.03216	0.007405049
1155	72.7	136.125	144.34569	0.007346189
1156	72.75	142.776	147.26305	0.007003978
1157	72.8	138.724	151.03145	0.007208558
1158	72.85	144.246	156.1417	0.006932601
1159	72.9	149.468	163.6239	0.006690395
1160	72.95	167.534	175.56191	0.005968938
1161	73	189.305	195.73053	0.005282481
1162	73.05	217.45	229.90077	0.004598758
1163	73.1	273.207	284.97632	0.003660228
1164	73.15	354.635	366.21595	0.002819801
1165	73.2	455.264	472.65201	0.002196528
1166	73.25	589.625	591.67601	0.001695993
1167	73.3	690.827	694.59302	0.00144754
1168	73.35	743.947	741.52312	0.001344182
1169	73.4	723.671	709.84246	0.001381843
1170	73.45	643.578	620.8302	0.001553813
1171	73.5	526.641	518.243	0.001898827
1172	73.55	454.057	436.42702	0.002202367
1173	73.6	410.917	393.82221	0.002433581
1174	73.65	412.884	396.00816	0.002421988
1175	73.7	452.754	438.05132	0.002208705
1176	73.75	511.188	505.36426	0.001956227
1177	73.8	568.907	573.26392	0.001757757
1178	73.85	628.916	610.02867	0.001590037
1179	73.9	620.235	595.05493	0.001612292
1180	73.95	551.198	540.03825	0.00181423
1181	74	492.143	476.88321	0.00203193
1182	74.05	447.478	432.53849	0.002234747
1183	74.1	429.242	421.62969	0.002329688
1184	74.15	463.277	447.90018	0.002158536
1185	74.2	526.225	506.43737	0.001900328
1186	74.25	632.69	586.12789	0.001580553
1187	74.3	721.28	674.82275	0.001386424
1188	74.35	829.265	772.37466	0.001205887
1189	74.4	937.823	899.49878	0.001066299
1190	74.45	1085.709	1077.18494	0.000921057
1191	74.5	1299.337	1297.55208	0.000769623
1192	74.55	1497.915	1509.89191	0.000667595
1193	74.6	1667.146	1624.25531	0.000599827
1194	74.65	1671.265	1562.97039	0.000598349
1195	74.7	1460.005	1342.59847	0.000684929
1196	74.75	1157.08	1055.48702	0.000864244
1197	74.8	834.282	783.43372	0.001198635
1198	74.85	600.986	567.65228	0.001663932
1199	74.9	445.107	417.59332	0.002246651
1200	74.95	344.191	324.14186	0.002905364
1201	75	283.485	271.373	0.003527524
1202	75.05	248.718	244.63886	0.004020618
1203	75.1	234.179	233.81735	0.004270238
1204	75.15	231.378	232.89429	0.004321932
1205	75.2	241.997	238.01805	0.004132283
1206	75.25	240.943	245.67424	0.004150359
1207	75.3	252.797	252.06995	0.003955743
1208	75.35	248.376	255.31478	0.004026154
1209	75.4	247.498	259.08884	0.004040437
1210	75.45	271.64	272.42149	0.003681343
1211	75.5	307.423	307.00887	0.003252847
1212	75.55	366.392	375.36878	0.002729317
1213	75.6	481.963	487.4887	0.002074848
1214	75.65	635.121	644.51068	0.001574503
1215	75.7	837.807	830.57171	0.001193592
1216	75.75	1055.762	1004.61262	0.000947183
1217	75.8	1199.619	1101.56734	0.000833598
1218	75.85	1228.281	1069.73156	0.000814146
1219	75.9	1094.708	925.25272	0.000913486
1220	75.95	840.659	733.85214	0.001189543
1221	76	613.023	551.71872	0.00163126
1222	76.05	436.541	406.87302	0.002290736
1223	76.1	314.948	305.63114	0.003175127
1224	76.15	250.967	241.61291	0.003984588
1225	76.2	209.411	203.7203	0.004775298
1226	76.25	183.243	181.66686	0.005457234
1227	76.3	169.916	168.27904	0.005885261
1228	76.35	155.687	159.42428	0.006423144
1229	76.4	150.388	153.01504	0.006649467
1230	76.45	141.843	148.0614	0.007050048
1231	76.5	133.95	144.08073	0.007465472
1232	76.55	128.83	140.80902	0.007762167
1233	76.6	125.638	138.08	0.007959375
1234	76.65	121.971	135.77776	0.00819867
1235	76.7	125.012	133.81697	0.007999232
1236	76.75	120.886	132.13301	0.008272257
1237	76.8	120.701	130.6761	0.008284936
1238	76.85	121.495	129.40738	0.008230791
1239	76.9	124.342	128.29616	0.008042335
1240	76.95	124.902	127.31795	0.008006277
1241	77	129.316	126.45301	0.007732995
1242	77.05	132.132	125.68531	0.007568189
1243	77.1	129.093	125.0017	0.007746353
1244	77.15	124.694	124.45063	0.008019632
1245	77.2	123.898	123.90493	0.008071155
1246	77.25	126.611	123.41593	0.007898208
1247	77.3	127.173	122.97736	0.007863304
1248	77.35	123.636	122.58391	0.008088259
1249	77.4	123.952	122.23109	0.008067639
1250	77.45	118.677	121.9151	0.008426233
1251	77.5	120.063	121.64576	0.008328961
1252	77.55	119.368	121.39861	0.008377455
1253	77.6	127.755	121.17582	0.007827482
1254	77.65	128.662	120.9797	0.007772303
1255	77.7	121.704	120.80865	0.008216657
1256	77.75	122.815	120.66136	0.008142328
1257	77.8	127.749	120.54241	0.00782785
1258	77.85	127.019	120.4398	0.007872838
1259	77.9	123.847	120.35856	0.008074479
1260	77.95	124.085	120.29834	0.008058992
1261	78	123.852	120.25904	0.008074153
1262	78.05	122.835	120.24077	0.008141002
1263	78.1	122.234	120.24387	0.00818103
1264	78.15	118.424	120.26894	0.008444234
1265	78.2	128.488	120.31685	0.007782828
1266	78.25	123.04	120.38875	0.008127438
1267	78.3	117.968	120.48615	0.008476875
1268	78.35	124.304	120.61095	0.008044793
1269	78.4	123.03	120.7655	0.008128099
1270	78.45	122.268	120.95268	0.008178755
1271	78.5	124.243	121.17604	0.008048743
1272	78.55	123.779	121.43945	0.008078915
1273	78.6	126.85	121.7468	0.007883327
1274	78.65	121.657	122.1018	0.008219831
1275	78.7	123.765	122.50727	0.008079829
1276	78.75	125.433	122.99961	0.007972384
1277	78.8	128.624	123.57434	0.007774599
1278	78.85	128.143	124.24679	0.007803782
1279	78.9	128.815	125.03651	0.007763071
1280	78.95	125.084	125.96845	0.007994628
1281	79	125.642	127.0749	0.007959122
1282	79.05	133.681	128.39825	0.007480495
1283	79.1	134.844	129.99531	0.007415977
1284	79.15	127.249	131.94533	0.007858608
1285	79.2	133.172	134.36764	0.007509086
1286	79.25	135.666	137.4656	0.007371044
1287	79.3	142.878	141.6345	0.006998978
1288	79.35	148.807	147.69801	0.006720114
1289	79.4	163.853	157.33388	0.006103031
1290	79.45	180.368	173.6368	0.005544221
1291	79.5	210.812	201.47875	0.004743563
1292	79.55	254.551	246.97881	0.003928486
1293	79.6	318.886	315.38598	0.003135917
1294	79.65	413.379	407.33916	0.002419088
1295	79.7	494.696	514.19487	0.002021443
1296	79.75	582.253	613.13104	0.001717466
1297	79.8	648.415	667.3422	0.001542222
1298	79.85	642.259	648.2586	0.001557004
1299	79.9	558.478	566.97317	0.001790581
1300	79.95	477.363	461.10268	0.002094842
1301	80	387.758	361.40908	0.002578928
1302	80.05	312.019	282.96963	0.003204933
1303	80.1	259.174	229.31734	0.003858412
1304	80.15	220.8	197.52028	0.004528986
1305	80.2	205.536	182.64328	0.004865328
1306	80.25	202.704	180.77933	0.004933302
1307	80.3	213.615	190.00709	0.004681319
1308	80.35	235.812	209.53199	0.004240666
1309	80.4	258.464	237.83842	0.003869011
1310	80.45	280.446	270.61168	0.003565749
1311	80.5	301.29	298.90124	0.003319061
1312	80.55	303.321	310.09083	0.003296837
1313	80.6	297.87	296.95273	0.003357169
1314	80.65	267.226	265.9306	0.003742151
1315	80.7	240.037	229.55378	0.004166024
1316	80.75	205.833	196.73641	0.004858307
1317	80.8	170.117	171.39009	0.005878307
1318	80.85	162.866	153.95179	0.006140017
1319	80.9	154.457	142.95478	0.006474294
1320	80.95	146.813	136.35745	0.006811386
1321	81	141.96	132.3971	0.007044238
1322	81.05	135.097	129.88726	0.007402089
1323	81.1	130.276	128.15924	0.007676011
1324	81.15	128.862	126.87585	0.00776024
1325	81.2	126.426	125.90402	0.007909765
1326	81.25	125.827	125.11128	0.00794742
1327	81.3	124.337	124.45901	0.008042658
1328	81.35	119.996	123.92633	0.008333611
1329	81.4	122.898	123.49095	0.008136829
1330	81.45	125.041	123.13627	0.007997377
1331	81.5	122.457	122.84961	0.008166132
1332	81.55	125.228	122.62123	0.007985435
1333	81.6	127.744	122.44355	0.007828156
1334	81.65	126.509	122.31068	0.007904576
1335	81.7	119.139	122.21802	0.008393557
1336	81.75	121.209	122.16202	0.008250212
1337	81.8	120.484	122.13998	0.008299857
1338	81.85	122.148	122.14987	0.00818679
1339	81.9	122.321	122.1903	0.008175211
1340	81.95	121.726	122.26035	0.008215172
1341	82	119.678	122.35959	0.008355755
1342	82.05	118.246	122.488	0.008456946
1343	82.1	121.497	122.64597	0.008230656
1344	82.15	111.984	122.83429	0.008929847
1345	82.2	117.474	123.05416	0.008512522
1346	82.25	116.301	123.30718	0.008598378
1347	82.3	117.274	123.61876	0.008527039
1348	82.35	116.111	123.94603	0.008612448
1349	82.4	119.818	124.31313	0.008345991
1350	82.45	120.758	124.72489	0.008281025
1351	82.5	122.947	125.18577	0.008133586
1352	82.55	127.822	125.7011	0.007823379
1353	82.6	123.893	126.27721	0.008071481
1354	82.65	120.601	126.92162	0.008291805
1355	82.7	125.326	127.64328	0.00797919
1356	82.75	132.553	128.4529	0.007544152
1357	82.8	128.853	129.36332	0.007760782
1358	82.85	129.634	130.39005	0.007714026
1359	82.9	127.387	131.59289	0.007850095
1360	82.95	133.828	132.93823	0.007472278
1361	83	135.69	134.44469	0.00736974
1362	83.05	130.355	136.17215	0.007671359
1363	83.1	136.72	138.17382	0.007314219
1364	83.15	137.194	140.49532	0.007288948
1365	83.2	145.48	143.19731	0.006873797
1366	83.25	147.566	146.37941	0.006776629
1367	83.3	150.673	150.1602	0.006636889
1368	83.35	156.595	154.69794	0.0063859
1369	83.4	160.099	160.21269	0.006246135
1370	83.45	158.487	167.03388	0.006309666
1371	83.5	172.885	175.71624	0.005784192
1372	83.55	188.148	187.31809	0.005314965
1373	83.6	196.328	203.99944	0.005093517
1374	83.65	236.3	230.08817	0.004231909
1375	83.7	272.793	273.4988	0.003665783
1376	83.75	353.426	346.72321	0.002829447
1377	83.8	492.337	465.78518	0.002031129
1378	83.85	656.249	645.43036	0.001523812
1379	83.9	923.273	890.1583	0.001083103
1380	83.95	1245.259	1182.28116	0.000803046
1381	84	1565.239	1468.36482	0.00063888
1382	84.05	1772.158	1656.02054	0.000564284
1383	84.1	1785.641	1661.04793	0.000560023
1384	84.15	1578.771	1484.68674	0.000633404
1385	84.2	1280.39	1206.64262	0.000781012
1386	84.25	967.342	915.68177	0.001033761
1387	84.3	687.821	667.76697	0.001453867
1388	84.35	499.545	483.51821	0.002001822
1389	84.4	377.879	360.16006	0.00264635
1390	84.45	302.213	283.78621	0.003308925
1391	84.5	258.635	238.59479	0.003866453
1392	84.55	225.09	211.9578	0.004442667
1393	84.6	203.569	195.75333	0.004912339
1394	84.65	186.75	185.62667	0.005354752
1395	84.7	183.293	179.71349	0.005455746
1396	84.75	190.422	177.91888	0.005251494
1397	84.8	188.146	180.93343	0.005315021
1398	84.85	191.258	189.97669	0.005228539
1399	84.9	207.201	205.94592	0.004826232
1400	84.95	228.032	228.36497	0.004385349
1401	85	252.378	254.16824	0.003962311
1402	85.05	279.103	276.46544	0.003582907
1403	85.1	279.365	285.28669	0.003579546
1404	85.15	279.752	274.76038	0.003574595
1405	85.2	248.56	249.90338	0.004023173
1406	85.25	215.649	220.74648	0.004637165
1407	85.3	197.001	194.57724	0.005076116
1408	85.35	178.824	174.7513	0.005592091
1409	85.4	165.214	161.82	0.006052756
1410	85.45	155.364	154.63746	0.006436498
1411	85.5	150.177	151.26523	0.006658809
1412	85.55	147.592	149.55452	0.006775435
1413	85.6	148.776	147.60963	0.006721514
1414	85.65	139.893	144.55134	0.007148321
1415	85.7	137.642	140.74416	0.007265224
1416	85.75	133.631	136.94174	0.007483294
1417	85.8	129.041	133.71357	0.007749475
1418	85.85	129.006	131.19508	0.007751577
1419	85.9	124.787	129.3551	0.008013655
1420	85.95	126.012	128.05418	0.007935752
1421	86	125.37	127.13251	0.00797639
1422	86.05	120.948	126.48443	0.008268016
1423	86.1	121.504	125.98253	0.008230182
1424	86.15	121.457	125.56586	0.008233367
1425	86.2	126.274	125.22292	0.007919287
1426	86.25	119.867	124.93854	0.00834258
1427	86.3	123.493	124.70333	0.008097625
1428	86.35	123.059	124.51111	0.008126183
1429	86.4	123.444	124.35746	0.008100839
1430	86.45	120.512	124.23914	0.008297929
1431	86.5	121.88	124.1538	0.008204792
1432	86.55	120.656	124.09979	0.008288025
1433	86.6	116.395	124.07606	0.008591434
1434	86.65	118.325	124.08212	0.008451299
1435	86.7	121.699	124.11798	0.008216994
1436	86.75	117.354	124.18415	0.008521226
1437	86.8	129.19	124.28165	0.007740537
1438	86.85	129.927	124.41204	0.00769663
1439	86.9	126.432	124.57746	0.00790939
1440	86.95	121.609	124.78077	0.008223076
1441	87	116.836	125.02556	0.008559006
1442	87.05	128.357	125.3164	0.007790771
1443	87.1	118.893	125.65896	0.008410924
1444	87.15	120.441	126.06034	0.00830282
1445	87.2	125.946	126.52934	0.007939911
1446	87.25	124.58	127.07699	0.008026971
1447	87.3	126.233	127.71713	0.007921859
1448	87.35	128.28	128.46727	0.007795447
1449	87.4	127.962	129.34973	0.00781482
1450	87.45	124.413	130.39328	0.008037745
1451	87.5	119.262	131.63542	0.0083849
1452	87.55	125.448	133.12602	0.00797143
1453	87.6	132.364	134.93362	0.007554924
1454	87.65	129.897	137.15867	0.007698407
1455	87.7	132.579	139.9651	0.007542673
1456	87.75	136.755	143.65633	0.007312347
1457	87.8	143.188	148.84209	0.006983825
1458	87.85	145.395	156.74794	0.006877816
1459	87.9	157.049	169.65772	0.006367439
1460	87.95	170.384	191.29514	0.005869096
1461	88	214.67	226.6815	0.004658313
1462	88.05	276.101	280.89181	0.003621863
1463	88.1	360.467	356.47603	0.002774179
1464	88.15	477.397	449.92402	0.002094693
1465	88.2	601.146	547.50473	0.001663489
1466	88.25	727.784	621.61982	0.001374034
1467	88.3	732.124	638.64011	0.001365889
1468	88.35	645.718	588.9869	0.001548664
1469	88.4	510.491	498.82658	0.001958898
1470	88.45	374.902	401.1636	0.002667364
1471	88.5	300.242	316.26462	0.003330647
1472	88.55	228.389	252.04383	0.004378495
1473	88.6	195.596	208.41685	0.005112579
1474	88.65	181.693	181.14264	0.005503789
1475	88.7	160.188	164.93725	0.006242665
1476	88.75	156.222	155.37679	0.006401147
1477	88.8	141.427	149.50756	0.007070786
1478	88.85	144.872	145.64705	0.006902645
1479	88.9	141.795	142.96984	0.007052435
1480	88.95	146.587	141.04259	0.006821887
1481	89	139.735	139.65584	0.007156403
1482	89.05	139.79	138.69427	0.007153588
1483	89.1	133.069	138.08845	0.007514898
1484	89.15	128.58	137.79546	0.007777259
1485	89.2	141.288	137.79058	0.007077742
1486	89.25	132.104	138.0615	0.007569793
1487	89.3	138.277	138.60458	0.007231861
1488	89.35	136.32	139.45965	0.007335681
1489	89.4	140.013	140.64534	0.007142194
1490	89.45	140.977	142.21064	0.007093356
1491	89.5	142.827	144.22708	0.007001477
1492	89.55	142.668	146.80165	0.00700928
1493	89.6	144.843	150.08476	0.006904027
1494	89.65	150.917	154.33899	0.006626159
1495	89.7	157.612	160.20741	0.006344695
1496	89.75	170.481	168.74118	0.005865756
1497	89.8	178.432	182.13819	0.005604376
1498	89.85	210.19	204.32098	0.0047576
1499	89.9	252.049	241.39086	0.003967483
1500	89.95	323.823	301.07792	0.003088107
1501	90	415.9	390.45604	0.002404424
1502	90.05	547.319	511.80676	0.001827088
1503	90.1	752.606	657.28879	0.001328716
1504	90.15	930.025	802.74347	0.00107524
1505	90.2	1052.441	903.69017	0.000950172
1506	90.25	1041.57	912.71187	0.000960089
1507	90.3	921.465	824.7577	0.001085228
1508	90.35	716.244	683.2432	0.001396172
1509	90.4	497.94	535.44992	0.002008274
1510	90.45	382.759	408.98718	0.00261261
1511	90.5	283.899	314.02092	0.003522379
1512	90.55	225.998	249.59602	0.004424818
1513	90.6	189.527	209.13499	0.005276293
1514	90.65	169.348	184.80431	0.005905
1515	90.7	153.49	170.14148	0.006515082
1516	90.75	151.472	160.85586	0.00660188
1517	90.8	144.152	154.50564	0.006937122
1518	90.85	136.015	149.80718	0.00735213
1519	90.9	137.905	146.1674	0.007251369
1520	90.95	129.886	143.28129	0.007699059
1521	91	128.525	140.94043	0.007780587
1522	91.05	128.186	139.02315	0.007801164
1523	91.1	124.723	137.44319	0.008017767
1524	91.15	123.021	136.13656	0.008128693
1525	91.2	124.582	135.05469	0.008026842
1526	91.25	126.543	134.16022	0.007902452
1527	91.3	125.41	133.42416	0.007973846
1528	91.35	124.599	132.8239	0.008025747
1529	91.4	121.106	132.34175	0.008257229
1530	91.45	124.977	131.9639	0.008001472
1531	91.5	120.796	131.6796	0.00827842
1532	91.55	128.615	131.48066	0.007775143
1533	91.6	131.035	131.36096	0.007631549
1534	91.65	119.895	131.31619	0.008340631
1535	91.7	124.445	131.34361	0.008035678
1536	91.75	127.313	131.44193	0.007854657
1537	91.8	126.455	131.61124	0.007907951
1538	91.85	131.385	131.85298	0.007611219
1539	91.9	122.755	132.16986	0.008146308
1540	91.95	126.359	132.56616	0.007913959
1541	92	123.769	133.04773	0.008079568
1542	92.05	127.627	133.62228	0.007835333
1543	92.1	135.108	134.29964	0.007401486
1544	92.15	138.619	135.09219	0.007214018
1545	92.2	136.108	136.01541	0.007347107
1546	92.25	127.925	137.0886	0.00781708
1547	92.3	126.937	138.33584	0.007877924
1548	92.35	135.632	139.78733	0.007372891
1549	92.4	136.742	141.4811	0.007313042
1550	92.45	134.508	143.46548	0.007434502
1551	92.5	142.024	145.80238	0.007041063
1552	92.55	152.321	148.57222	0.006565083
1553	92.6	151.349	151.88143	0.006607246
1554	92.65	165.242	155.87612	0.00605173
1555	92.7	164.669	160.77069	0.006072788
1556	92.75	167.432	166.91861	0.005972574
1557	92.8	185.92	174.95672	0.005378657
1558	92.85	195.407	186.1341	0.005117524
1559	92.9	234.421	202.89463	0.004265829
1560	92.95	263.272	229.64847	0.003798353
1561	93	317.498	273.4019	0.003149626
1562	93.05	383.418	343.44528	0.00260812
1563	93.1	502.925	449.15984	0.001988368
1564	93.15	631.782	595.58034	0.001582824
1565	93.2	792.829	777.3054	0.001261306
1566	93.25	951.159	971.20726	0.001051349
1567	93.3	1051.638	1129.32003	0.000950898
1568	93.35	1091.44	1188.7665	0.000916221
1569	93.4	1032.898	1122.51092	0.00096815
1570	93.45	916.561	972.56517	0.001091035
1571	93.5	776.744	805.3445	0.001287425
1572	93.55	663.723	666.92844	0.001506653
1573	93.6	602.884	577.40702	0.001658694
1574	93.65	576.108	536.78732	0.001735786
1575	93.7	559.254	529.9302	0.001788096
1576	93.75	570.895	531.27503	0.001751636
1577	93.8	522.947	516.08576	0.00191224
1578	93.85	478.018	478.238	0.002091971
1579	93.9	414.931	430.27491	0.002410039
1580	93.95	374.287	385.88554	0.002671747
1581	94	347.378	350.5859	0.002878708
1582	94.05	330.656	321.98001	0.003024291
1583	94.1	300.321	294.10114	0.00332977
1584	94.15	253.16	264.39314	0.003950071
1585	94.2	232.845	235.22079	0.004294702
1586	94.25	204.275	209.56916	0.004895362
1587	94.3	185.896	188.88716	0.005379352
1588	94.35	165.338	173.33036	0.006048216
1589	94.4	154.426	162.25461	0.006475593
1590	94.45	151.06	154.62644	0.006619886
1591	94.5	146.812	149.38417	0.006811432
1592	94.55	142.274	145.67101	0.007028691
1593	94.6	133.601	142.90448	0.007484974
1594	94.65	131.401	140.73343	0.007610292
1595	94.7	131.937	138.97224	0.007579375
1596	94.75	131.315	137.50088	0.007615276
1597	94.8	131.972	136.24708	0.007577365
1598	94.85	127.991	135.17674	0.007813049
1599	94.9	131.843	134.26547	0.007584779
1600	94.95	131.594	133.49646	0.007599131
1601	95	127.386	132.85345	0.007850156
1602	95.05	128.983	132.30543	0.00775296
1603	95.1	129.892	131.88287	0.007698704
1604	95.15	129.987	131.5283	0.007693077
1605	95.2	126.963	131.19953	0.00787631
1606	95.25	127.204	130.8493	0.007861388
1607	95.3	126.747	130.46092	0.007889733
1608	95.35	121.282	130.06114	0.008245247
1609	95.4	130.475	129.68707	0.007664304
1610	95.45	129.423	129.36187	0.007726602
1611	95.5	125.528	129.09412	0.00796635
1612	95.55	125.085	128.88276	0.007994564
1613	95.6	123.053	128.72138	0.00812658
1614	95.65	128.556	128.60208	0.007778711
1615	95.7	123.532	128.51781	0.008095068
1616	95.75	128.005	128.4634	0.007812195
1617	95.8	129.36	128.43142	0.007730365
1618	95.85	126.286	128.42282	0.007918534
1619	95.9	125.838	128.44357	0.007946725
1620	95.95	123.818	128.48768	0.00807637
1621	96	126.912	128.55513	0.007879476
1622	96.05	133.986	128.64623	0.007463466
1623	96.1	131.148	128.76154	0.007624973
1624	96.15	129.885	128.90191	0.007699118
1625	96.2	121.484	129.06849	0.008231537
1626	96.25	123.941	129.26272	0.008068355
1627	96.3	122.948	129.48641	0.00813352
1628	96.35	129.624	129.74174	0.007714621
1629	96.4	131.568	130.03136	0.007600632
1630	96.45	129.332	130.35844	0.007732038
1631	96.5	133.115	130.72676	0.007512301
1632	96.55	128.961	131.14083	0.007754282
1633	96.6	136.676	131.60606	0.007316574
1634	96.65	131.686	132.12889	0.007593822
1635	96.7	129.928	132.71711	0.00769657
1636	96.75	129.43	133.38006	0.007726184
1637	96.8	131.819	134.12914	0.00758616
1638	96.85	129.802	134.97822	0.007704042
1639	96.9	128.617	135.94438	0.007775022
1640	96.95	132.823	137.04878	0.007528817
1641	97	133.458	138.3179	0.007492994
1642	97.05	137.518	139.78516	0.007271775
1643	97.1	134.3	141.49325	0.007446016
1644	97.15	132.572	143.50724	0.007543071
1645	97.2	139.797	145.89565	0.007153229
1646	97.25	147.895	148.74716	0.006761554
1647	97.3	149	152.2216	0.006711409
1648	97.35	150.497	156.57818	0.006644651
1649	97.4	159.396	162.29394	0.006273683
1650	97.45	169.153	170.28713	0.005911808
1651	97.5	182.074	182.28403	0.005492272
1652	97.55	208.411	201.27054	0.004798211
1653	97.6	243.327	231.78198	0.004109696
1654	97.65	302.977	279.57062	0.003300581
1655	97.7	376.184	350.16955	0.002658274
1656	97.75	486.588	446.22843	0.002055127
1657	97.8	630.938	563.94818	0.001584942
1658	97.85	775.474	688.74442	0.001289534
1659	97.9	855.457	790.96989	0.001168966
1660	97.95	845.123	831.3865	0.00118326
1661	98	774.651	790.06474	0.001290904
1662	98.05	635.762	688.08349	0.001572916
1663	98.1	497.177	564.63914	0.002011356
1664	98.15	396.33	448.86277	0.00252315
1665	98.2	311.361	355.01831	0.003211706
1666	98.25	254.892	286.71517	0.00392323
1667	98.3	221.122	241.21861	0.00452239
1668	98.35	193.984	213.00321	0.005155064
1669	98.4	187.363	196.3876	0.005337233
1670	98.45	177.326	186.94108	0.005639331
1671	98.5	175.002	181.80216	0.00571422
1672	98.55	185.916	179.39907	0.005378773
1673	98.6	175.537	179.0629	0.005696805
1674	98.65	183.774	180.72034	0.005441466
1675	98.7	186.044	184.85543	0.005375073
1676	98.75	194.602	192.68098	0.005138693
1677	98.8	211.044	206.29155	0.004738348
1678	98.85	238.104	228.67314	0.004199845
1679	98.9	282.407	263.232	0.003540989
1680	98.95	337.263	312.63321	0.002965045
1681	99	391.84	377.01815	0.002552062
1682	99.05	466.319	451.77463	0.002144455
1683	99.1	557.41	524.85179	0.001794012
1684	99.15	591.514	575.58159	0.001690577
1685	99.2	576.283	583.45541	0.001735259
1686	99.25	518.289	546.89635	0.001929425
1687	99.3	465.214	485.24095	0.002149548
1688	99.35	398.888	420.76814	0.002506969
1689	99.4	356.781	368.23916	0.00280284
1690	99.45	339.852	335.70923	0.002942457
1691	99.5	338.105	327.85776	0.002957661
1692	99.55	378.748	348.8783	0.002640278
1693	99.6	434.002	404.21459	0.002304137
1694	99.65	539.514	500.09117	0.00185352
1695	99.7	690.295	640.72722	0.001448656
1696	99.75	873.33	823.5446	0.001145043
1697	99.8	1090.894	1032.86652	0.000916679
1698	99.85	1298.029	1232.44249	0.000770399
1699	99.9	1417.449	1365.40811	0.000705493
1700	99.95	1398.743	1385.50347	0.000714928
1701	100	1275.597	1302.10233	0.000783947
1702	100.05	1118.922	1166.67466	0.000893717
1703	100.1	957.257	1021.6452	0.001044652
1704	100.15	828.146	880.63718	0.001207517
1705	100.2	687.68	742.30951	0.001454165
1706	100.25	571.509	610.24337	0.001749754
1707	100.3	455.336	493.96828	0.00219618
1708	100.35	360.507	399.59178	0.002773871
1709	100.4	296.074	327.62759	0.003377534
1710	100.45	252.7	275.4213	0.003957262
1711	100.5	220.745	239.05682	0.004530114
1712	100.55	194.368	214.39409	0.00514488
1713	100.6	179.509	197.748	0.005570751
1714	100.65	174.558	186.26729	0.005728755
1715	100.7	161.077	178.02768	0.006208211
1716	100.75	166.7	171.82547	0.0059988
1717	100.8	156.295	166.97061	0.006398157
1718	100.85	149.033	163.07274	0.006709923
1719	100.9	145.113	159.90392	0.006891181
1720	100.95	140.118	157.32172	0.007136842
1721	101	136.213	155.23112	0.007341443
1722	101.05	142.638	153.56659	0.007010754
1723	101.1	144.643	152.28371	0.006913573
1724	101.15	141.486	151.35589	0.007067837
1725	101.2	141.836	150.7709	0.007050396
1726	101.25	143.987	150.54959	0.006945071
1727	101.3	141.197	150.71608	0.007082303
1728	101.35	146.428	151.31918	0.006829295
1729	101.4	143.454	152.50593	0.006970876
1730	101.45	153.673	154.56512	0.006507324
1731	101.5	158.263	158.04016	0.006318596
1732	101.55	169.137	163.87641	0.005912367
1733	101.6	174.119	173.53314	0.005743199
1734	101.65	195.666	188.93383	0.00511075
1735	101.7	220.721	212.09826	0.004530607
1736	101.75	252.934	244.38204	0.003953601
1737	101.8	294.374	285.39255	0.003397039
1738	101.85	330.72	331.64247	0.003023706
1739	101.9	361.374	374.94153	0.002767216
1740	101.95	383.132	402.21982	0.002610067
1741	102	368.347	401.79519	0.002714831
1742	102.05	341.619	374.07431	0.002927238
1743	102.1	302.811	331.0388	0.00330239
1744	102.15	253.003	285.59413	0.003952522
1745	102.2	229.874	245.8412	0.004350209
1746	102.25	203.507	215.35203	0.004913836
1747	102.3	192.781	194.68192	0.005187233
1748	102.35	177.729	182.63659	0.005626544
1749	102.4	171.465	177.2483	0.005832094
1750	102.45	173.082	176.39291	0.005777608
1751	102.5	181.236	177.98603	0.005517668
1752	102.55	179.713	179.90007	0.005564428
1753	102.6	172.872	180.16883	0.005784627
1754	102.65	172.872	177.92804	0.005784627
1755	102.7	161.149	173.91346	0.006205437
1756	102.75	170.332	169.5315	0.005870887
1757	102.8	167.961	165.88175	0.005953763
1758	102.85	170.653	163.56726	0.005859844
1759	102.9	160.703	162.84716	0.006222659
1760	102.95	166.65	163.81754	0.0060006
1761	103	166.168	166.58648	0.006018006
1762	103.05	176.324	171.44315	0.005671378
1763	103.1	183.744	178.9992	0.005442355
1764	103.15	195.339	190.29603	0.005119305
1765	103.2	214.686	206.89395	0.004657966
1766	103.25	245.957	230.95355	0.004065751
1767	103.3	282.367	265.27817	0.00354149
1768	103.35	344.959	313.10234	0.002898895
1769	103.4	390.694	377.29484	0.002559548
1770	103.45	466.113	459.24008	0.002145403
1771	103.5	563.056	558.5755	0.001776022
1772	103.55	696.363	673.20479	0.001436033
1773	103.6	814.857	794.69487	0.001227209
1774	103.65	926.055	900.92853	0.001079849
1775	103.7	1004.464	956.2284	0.000995556
1776	103.75	957.11	932.36104	0.001044812
1777	103.8	837.322	836.09963	0.001194284
1778	103.85	674.593	702.2645	0.001482375
1779	103.9	529.997	565.14979	0.001886803
1780	103.95	411.407	445.33796	0.002430683
1781	104	323.732	351.2267	0.003088975
1782	104.05	271.987	283.16637	0.003676646
1783	104.1	228.829	237.09837	0.004370075
1784	104.15	201.402	207.2298	0.004965194
1785	104.2	172.924	188.13081	0.005782887
1786	104.25	172.906	175.66194	0.005783489
1787	104.3	162.58	167.10322	0.006150818
1788	104.35	157.015	160.85425	0.006368818
1789	104.4	148.256	156.03132	0.00674509
1790	104.45	146.186	152.15737	0.0068406
1791	104.5	143.35	148.96604	0.006975933
1792	104.55	139.387	146.294	0.00717427
1793	104.6	139.62	144.0311	0.007162298
1794	104.65	136.43	142.09746	0.007329766
1795	104.7	140.171	140.4325	0.007134143
1796	104.75	138.974	138.98915	0.007195591
1797	104.8	136.921	137.73672	0.007303482
1798	104.85	134.253	136.6426	0.007448623
1799	104.9	132.064	135.67406	0.007572086
1800	104.95	130.331	134.81469	0.007672772
1801	105	130.486	134.05431	0.007663657
1802	105.05	121.724	133.37641	0.008215307
1803	105.1	130.422	132.76595	0.007667418
1804	105.15	122.441	132.21638	0.008167199
1805	105.2	126.853	131.72071	0.00788314
1806	105.25	131.229	131.27264	0.007620267
1807	105.3	131.148	130.86681	0.007624973
1808	105.35	134.941	130.49854	0.007410646
1809	105.4	125.911	130.16389	0.007942118
1810	105.45	128.367	129.85936	0.007790164
1811	105.5	132.682	129.58195	0.007536817
1812	105.55	126.576	129.32905	0.007900392
1813	105.6	126.349	129.09837	0.007914586
1814	105.65	129.042	128.88794	0.007749415
1815	105.7	124.996	128.69602	0.008000256
1816	105.75	126.198	128.52634	0.007924056
1817	105.8	127.092	128.37021	0.007868316
1818	105.85	125.809	128.22701	0.007948557
1819	105.9	131.228	128.09667	0.007620325
1820	105.95	129.46	127.99239	0.007724394
1821	106	127.246	127.89425	0.007858793
1822	106.05	126.77	127.80281	0.007888302
1823	106.1	129.262	127.72014	0.007736226
1824	106.15	126.048	127.6465	0.007933486
1825	106.2	130.322	127.53954	0.007673302
1826	106.25	129.961	127.48694	0.007694616
1827	106.3	129.289	127.45317	0.00773461
1828	106.35	128.839	127.42161	0.007761625
1829	106.4	128.934	127.39513	0.007755906
1830	106.45	123.156	127.3838	0.008119783
1831	106.5	126.888	127.38195	0.007880966
1832	106.55	129.572	127.39352	0.007717717
1833	106.6	125.055	127.40995	0.007996482
1834	106.65	125.611	127.42895	0.007961086
1835	106.7	130.683	127.45274	0.007652105
1836	106.75	132.356	127.48324	0.007555381
1837	106.8	130.264	127.52126	0.007676718
1838	106.85	123.846	127.5674	0.008074544
1839	106.9	131.68	127.62236	0.007594168
1840	106.95	129.812	127.68673	0.007703448
1841	107	129.261	127.76118	0.007736285
1842	107.05	120.245	127.84639	0.008316354
1843	107.1	124.432	127.94308	0.008036518
1844	107.15	127.731	128.05207	0.007828953
1845	107.2	133.441	128.17426	0.007493949
1846	107.25	129.375	128.31072	0.007729469
1847	107.3	124.184	128.46267	0.008052567
1848	107.35	123.395	128.63152	0.008104056
1849	107.4	123.952	128.81892	0.008067639
1850	107.45	132.104	129.02675	0.007569793
1851	107.5	136.167	129.25721	0.007343923
1852	107.55	133.416	129.51285	0.007495353
1853	107.6	125.631	129.79665	0.007959819
1854	107.65	135.812	130.11208	0.00736312
1855	107.7	132.066	130.46325	0.007571972
1856	107.75	133.935	130.85498	0.007466308
1857	107.8	126.61	131.293	0.00789827
1858	107.85	134.467	131.78414	0.007436769
1859	107.9	122.186	132.33659	0.008184244
1860	107.95	125.847	132.96021	0.007946157
1861	108	139.622	133.66701	0.007162195
1862	108.05	136.546	134.47163	0.007323539
1863	108.1	134.886	135.39215	0.007413668
1864	108.15	136.891	136.45102	0.007305082
1865	108.2	138.099	137.67646	0.007241182
1866	108.25	152.419	139.10446	0.006560862
1867	108.3	147.119	140.78205	0.006797219
1868	108.35	149.547	142.77326	0.006686861
1869	108.4	150.459	145.17124	0.006646329
1870	108.45	160.136	148.12359	0.006244692
1871	108.5	164.853	151.88359	0.00606601
1872	108.55	175.867	156.90478	0.005686115
1873	108.6	189.007	163.99343	0.005290809
1874	108.65	207.858	174.50988	0.004810977
1875	108.7	227.252	190.55604	0.004400401
1876	108.75	254.956	215.01072	0.003922245
1877	108.8	293.607	251.2235	0.003405913
1878	108.85	330.042	302.21727	0.003029917
1879	108.9	395.765	369.3971	0.002526752
1880	108.95	461.261	450.8798	0.00216797
1881	109	536.365	539.43505	0.001864402
1882	109.05	602.362	620.21586	0.001660131
1883	109.1	648.379	671.32831	0.001542308
1884	109.15	632.119	673.91667	0.001581981
1885	109.2	581.862	627.27809	0.001718621
1886	109.25	524.905	549.08372	0.001905107
1887	109.3	460.014	461.00698	0.002173847
1888	109.35	385.501	378.5669	0.002594027
1889	109.4	328.629	309.77491	0.003042945
1890	109.45	275.422	257.06092	0.003630792
1891	109.5	236.483	219.33547	0.004228634
1892	109.55	217.672	193.71454	0.004594068
1893	109.6	199.378	176.80321	0.005015599
1894	109.65	181.262	165.7824	0.005516876
1895	109.7	172.284	158.40792	0.00580437
1896	109.75	163.933	153.24305	0.006100053
1897	109.8	157.123	149.42511	0.006364441
1898	109.85	152.551	146.46464	0.006555185
1899	109.9	143.173	144.0879	0.006984557
1900	109.95	144.318	142.13647	0.006929143
1901	110	140.842	140.51169	0.007100155
1902	110.05	136.51	139.13761	0.007325471
1903	110.1	136.687	137.97575	0.007315985
1904	110.15	136.123	136.9965	0.007346297
1905	110.2	135.669	136.16298	0.007370881
1906	110.25	138.498	135.45255	0.007220321
1907	110.3	137.306	134.84717	0.007283003
1908	110.35	136.415	134.33238	0.007330572
1909	110.4	133.56	133.89149	0.007487272
1910	110.45	133.524	133.52469	0.00748929
1911	110.5	139.252	133.22045	0.007181225
1912	110.55	135.312	132.97218	0.007390328
1913	110.6	127.039	132.77512	0.007871598
1914	110.65	128.55	132.62559	0.007779074
1915	110.7	131.974	132.52085	0.00757725
1916	110.75	128.276	132.45905	0.007795691
1917	110.8	131.873	132.43913	0.007583053
1918	110.85	135.131	132.46083	0.007400226
1919	110.9	133.26	132.52466	0.007504127
1920	110.95	134.027	132.63201	0.007461183
1921	111	129.962	132.78519	0.007694557
1922	111.05	135.354	132.98756	0.007388034
1923	111.1	134.318	133.24374	0.007445019
1924	111.15	129.359	133.55991	0.007730425
1925	111.2	129.379	133.94417	0.00772923
1926	111.25	129.429	134.40722	0.007726244
1927	111.3	135.747	134.96345	0.007366645
1928	111.35	133.771	135.63301	0.007475462
1929	111.4	140.698	136.44615	0.007107422
1930	111.45	143.654	137.45178	0.006961171
1931	111.5	141.938	138.73398	0.00704533
1932	111.55	140.557	140.44036	0.007114551
1933	111.6	142.26	142.82442	0.007029383
1934	111.65	144.056	146.29625	0.006941745
1935	111.7	150.865	151.46235	0.006628443
1936	111.75	153.153	159.11869	0.006529418
1937	111.8	164.097	170.15326	0.006093957
1938	111.85	177.479	185.32951	0.005634469
1939	111.9	197.776	204.95683	0.005056225
1940	111.95	221.51	228.47347	0.004514469
1941	112	264.727	253.93266	0.003777476
1942	112.05	293.6	277.43959	0.003405995
1943	112.1	315.698	293.26837	0.003167584
1944	112.15	317.795	296.24284	0.003146683
1945	112.2	307.719	285.54021	0.003249718
1946	112.25	277.802	265.26617	0.003599686
1947	112.3	236.412	241.17263	0.004229904
1948	112.35	205.902	217.80598	0.004856679
1949	112.4	189.71	197.79074	0.005271203
1950	112.45	175.191	182.18224	0.005708056
1951	112.5	169.968	170.98432	0.00588346
1952	112.55	159.103	163.60673	0.006285237
1953	112.6	154.609	159.23949	0.006467929
1954	112.65	153.93	157.12624	0.006496459
1955	112.7	152.071	156.72117	0.006575876
1956	112.75	161.707	157.7478	0.006184024
1957	112.8	161.45	160.19268	0.006193868
1958	112.85	164.582	164.25977	0.006075999
1959	112.9	171.426	170.29376	0.005833421
1960	112.95	176.767	178.67233	0.005657165
1961	113	183.681	189.67362	0.005444221
1962	113.05	208.377	203.33542	0.004798994
1963	113.1	223.675	219.31408	0.004470772
1964	113.15	233.656	236.75313	0.004279796
1965	113.2	261.261	254.36858	0.00382759
1966	113.25	288.766	271.37155	0.003463012
1967	113.3	308.248	289.10593	0.003244141
1968	113.35	339.419	311.73831	0.002946211
1969	113.4	371.079	344.59849	0.002694844
1970	113.45	398.084	391.85387	0.002512033
1971	113.5	456.628	454.79792	0.002189966
1972	113.55	514.256	530.47235	0.001944557
1973	113.6	581.515	610.11053	0.001719646
1974	113.65	650.635	677.97003	0.00153696
1975	113.7	683.911	714.22376	0.001462179
1976	113.75	687.532	705.47705	0.001454478
1977	113.8	660.987	654.68713	0.001512889
1978	113.85	581.787	577.88626	0.001718842
1979	113.9	506.369	493.11417	0.001974844
1980	113.95	437.644	413.54822	0.002284962
1981	114	379.481	346.43924	0.002635178
1982	114.05	327.232	294.44045	0.003055936
1983	114.1	288.913	257.13414	0.00346125
1984	114.15	269.394	232.49264	0.003712035
1985	114.2	257.724	218.11674	0.00388012
1986	114.25	246.269	212.07132	0.0040606
1987	114.3	248.296	213.37747	0.004027451
1988	114.35	257.989	222.15169	0.003876134
1989	114.4	272.14	239.43157	0.003674579
1990	114.45	294.582	266.71829	0.003394641
1991	114.5	324.492	305.27054	0.00308174
1992	114.55	374.549	355.21241	0.002669878
1993	114.6	426.002	414.49882	0.002347407
1994	114.65	487.165	477.68681	0.002052693
1995	114.7	561.441	534.73168	0.001781131
1996	114.75	611.425	571.82829	0.001635524
1997	114.8	625.41	577.40091	0.001598951
1998	114.85	603.89	550.27141	0.001655931
1999	114.9	546.945	500.44682	0.001828337
2000	114.95	469.12	441.84117	0.002131651
2001	115	398.402	385.89062	0.002510028
2002	115.05	343.849	339.55389	0.002908253
2003	115.1	320.225	305.73147	0.003122804
2004	115.15	299.6	284.18332	0.003337784
2005	115.2	280.554	272.31849	0.003564376
2006	115.25	269.392	265.88143	0.003712063
2007	115.3	273.528	260.00653	0.003655933
2008	115.35	269.647	251.05901	0.003708552
2009	115.4	252.52	238.14785	0.003960082
2010	115.45	229.417	222.68473	0.004358875
2011	115.5	208.24	206.75857	0.004802151
2012	115.55	193.77	192.0241	0.005160758
2013	115.6	181.428	179.42153	0.005511828
2014	115.65	162.669	169.28198	0.006147453
2015	115.7	157.779	161.51199	0.006337979
2016	115.75	151.574	155.76981	0.006597438
2017	115.8	150.453	151.61569	0.006646594
2018	115.85	142.003	148.62198	0.007042105
2019	115.9	144.61	146.43504	0.006915151
2020	115.95	145.062	144.7945	0.006893604
2021	116	144.274	143.52456	0.006931256
2022	116.05	144.554	142.51352	0.00691783
2023	116.1	139.109	141.67219	0.007188607
2024	116.15	141.722	140.99529	0.007056068
2025	116.2	139.833	140.4427	0.007151388
2026	116.25	140.961	139.99215	0.007094161
2027	116.3	135.356	139.6305	0.007387925
2028	116.35	139.329	139.34794	0.007177257
2029	116.4	144.577	139.13701	0.006916729
2030	116.45	136.869	138.99203	0.007306256
2031	116.5	133.238	138.90873	0.007505366
2032	116.55	137.817	138.88406	0.007255999
2033	116.6	139.507	138.91603	0.007168099
2034	116.65	135.879	139.00357	0.007359489
2035	116.7	130.204	139.14654	0.007680256
2036	116.75	135.519	139.34564	0.007379039
2037	116.8	137.146	139.60243	0.0072915
2038	116.85	136.782	139.91939	0.007310903
2039	116.9	137.233	140.3	0.007286877
2040	116.95	136.332	140.69276	0.007335035
2041	117	143.544	141.20582	0.006966505
2042	117.05	136.364	141.81018	0.007333314
2043	117.1	142.46	142.50466	0.007019514
2044	117.15	144.042	143.30027	0.00694242
2045	117.2	139.182	144.2105	0.007184837
2046	117.25	139.103	145.23354	0.007188918
2047	117.3	141.874	146.42632	0.007048508
2048	117.35	138.833	147.79757	0.007202898
2049	117.4	144.224	149.37963	0.006933659
2050	117.45	141.777	151.21625	0.00705333
2051	117.5	141.739	153.36847	0.007055221
2052	117.55	147.655	155.92726	0.006772544
2053	117.6	157.095	159.03696	0.006365575
2054	117.65	164.752	162.93656	0.006069729
2055	117.7	172.723	168.02518	0.005789617
2056	117.75	172.571	174.95301	0.005794716
2057	117.8	188.392	184.72494	0.005308081
2058	117.85	195.453	198.78114	0.00511632
2059	117.9	210.035	218.99245	0.004761111
2060	117.95	242.674	247.4962	0.004120755
2061	118	283.541	286.31591	0.003526827
2062	118.05	330.733	336.76029	0.003023587
2063	118.1	373.26	398.64384	0.002679098
2064	118.15	435.887	469.34426	0.002294173
2065	118.2	507.169	542.65202	0.001971729
2066	118.25	578.327	607.77913	0.001729126
2067	118.3	619.526	650.50064	0.001614137
2068	118.35	629.92	659.02087	0.001587503
2069	118.4	618.973	631.50025	0.001615579
2070	118.45	548.891	576.90849	0.001821855
2071	118.5	484.46	508.74124	0.002064154
2072	118.55	435.864	438.93431	0.002294294
2073	118.6	368.055	375.48526	0.002716985
2074	118.65	316.499	322.5659	0.003159568
2075	118.7	291.023	281.44803	0.003436155
2076	118.75	268.698	251.49396	0.00372165
2077	118.8	236.304	231.02668	0.004231837
2078	118.85	225.216	218.02944	0.004440182
2079	118.9	214.757	210.63523	0.004656426
2080	118.95	220.781	207.40382	0.004529375
2081	119	223.852	207.43538	0.004467237
2082	119.05	217.29	210.40008	0.004602145
2083	119.1	230.023	216.55647	0.004347391
2084	119.15	242.156	226.7977	0.004129569
2085	119.2	267.854	242.71538	0.003733377
2086	119.25	293.596	266.61974	0.003406041
2087	119.3	314.508	301.44712	0.003179569
2088	119.35	363.61	350.327	0.002750199
2089	119.4	417.988	415.93008	0.002392413
2090	119.45	479.963	499.51149	0.002083494
2091	119.5	574.508	599.74129	0.00174062
2092	119.55	670.326	711.27637	0.001491811
2093	119.6	771.715	823.08393	0.001295815
2094	119.65	861.055	917.52158	0.001161366
2095	119.7	917.167	973.59296	0.001090314
2096	119.75	948.757	976.76062	0.001054011
2097	119.8	940.469	928.24478	0.001063299
2098	119.85	876.374	843.48955	0.001141065
2099	119.9	770.774	742.76513	0.001297397
2100	119.95	680.273	643.69278	0.001469998
2101	120	586.522	558.73339	0.001704966
2102	120.05	542.102	495.61625	0.001844671
2103	120.1	515.432	458.65173	0.00194012
2104	120.15	506.52	449.94626	0.001974256
2105	120.2	510.281	470.14607	0.001959705
2106	120.25	539.526	518.63786	0.001853479
2107	120.3	596.321	593.28666	0.001676949
2108	120.35	662.694	689.52668	0.001508992
2109	120.4	746.908	798.97066	0.001338853
2110	120.45	856.411	907.66779	0.001167664
2111	120.5	933.331	995.51514	0.001071431
2112	120.55	997.603	1040.6091	0.001002403
2113	120.6	1003.484	1029.7565	0.000996528
2114	120.65	953.853	966.43474	0.00104838
2115	120.7	878.902	867.28329	0.001137783
2116	120.75	769.403	752.22055	0.001299709
2117	120.8	657.45	637.45492	0.001521028
2118	120.85	555.248	533.41289	0.001800997
2119	120.9	476.608	445.39177	0.00209816
2120	120.95	406.751	374.93595	0.002458507
2121	121	351.199	321.09698	0.002847389
2122	121.05	297.022	281.48926	0.003366754
2123	121.1	270.934	253.16419	0.003690936
2124	121.15	248.33	233.27388	0.0040269
2125	121.2	224.962	219.41824	0.004445195
2126	121.25	220.235	209.78771	0.004540604
2127	121.3	209.58	203.13349	0.004771448
2128	121.35	201.869	198.66985	0.004953708
2129	121.4	191.133	195.93217	0.005231959
2130	121.45	195.353	194.85069	0.005118939
2131	121.5	187.083	195.49966	0.005345221
2132	121.55	190.086	198.18545	0.005260777
2133	121.6	195.875	203.40975	0.005105297
2134	121.65	205.285	211.81099	0.004871277
2135	121.7	213.994	224.05511	0.004673028
2136	121.75	230.662	240.6559	0.004335348
2137	121.8	250.111	261.7797	0.003998225
2138	121.85	281.428	286.98355	0.003553307
2139	121.9	313.795	314.90859	0.003186794
2140	121.95	336.285	342.932	0.002973668
2141	122	361.039	367.02713	0.002769784
2142	122.05	395.386	382.5425	0.002529174
2143	122.1	398.316	386.29918	0.002510569
2144	122.15	383.129	378.54932	0.002610087
2145	122.2	367.256	362.777	0.002722896
2146	122.25	342.654	343.85923	0.002918396
2147	122.3	329.288	326.50962	0.003036855
2148	122.35	318.341	314.71388	0.003141286
2149	122.4	312.96	311.81041	0.003195297
2150	122.45	328.926	320.77027	0.003040197
2151	122.5	354.315	344.41146	0.002822347
2152	122.55	387.558	385.33289	0.002580259
2153	122.6	435.715	445.64583	0.002295078
2154	122.65	505.894	526.34115	0.001976699
2155	122.7	604.295	626.39953	0.001654821
2156	122.75	722.705	741.6316	0.00138369
2157	122.8	867.204	863.25629	0.001153131
2158	122.85	993.687	976.74197	0.001006353
2159	122.9	1113.59	1062.87703	0.000897997
2160	122.95	1193.727	1103.4231	0.000837712
2161	123	1188.071	1089.35103	0.000841701
2162	123.05	1087.461	1024.9371	0.000919573
2163	123.1	951.601	924.64631	0.001050861
2164	123.15	830.066	806.40742	0.001204723
2165	123.2	693.628	686.04651	0.001441695
2166	123.25	591.967	574.75401	0.001689283
2167	123.3	493.304	478.88792	0.002027148
2168	123.35	419.814	400.84871	0.002382007
2169	123.4	350.415	340.23953	0.002853759
2170	123.45	305.678	294.97426	0.003271416
2171	123.5	280.462	262.20139	0.003565545
2172	123.55	246.762	238.98475	0.004052488
2173	123.6	233.634	222.7256	0.004280199
2174	123.65	219.562	211.35464	0.004554522
2175	123.7	219.193	203.35498	0.004562189
2176	123.75	201.198	197.6876	0.004970228
2177	123.8	198.922	193.67981	0.005027096
2178	123.85	187.246	190.91668	0.005340568
2179	123.9	190.139	189.15453	0.00525931
2180	123.95	181.769	188.26183	0.005501488
2181	124	180.93	188.18315	0.005526999
2182	124.05	193.27	188.92453	0.005174109
2183	124.1	191.671	190.5544	0.005217273
2184	124.15	195.761	193.22061	0.00510827
2185	124.2	203.028	197.18481	0.004925429
2186	124.25	213.967	202.87672	0.004673618
2187	124.3	229.893	210.96855	0.00434985
2188	124.35	242.623	222.46324	0.004121621
2189	124.4	258.467	238.77855	0.003868966
2190	124.45	281.806	261.79286	0.00354854
2191	124.5	314.023	293.80342	0.00318448
2192	124.55	346.309	337.34067	0.002887595
2193	124.6	384.19	394.79413	0.002602879
2194	124.65	451.447	467.84464	0.002215099
2195	124.7	531.861	556.76266	0.001880191
2196	124.75	632.833	659.67347	0.001580196
2197	124.8	739.803	771.75982	0.001351711
2198	124.85	847.446	884.27607	0.001180016
2199	124.9	972.516	983.83647	0.001028261
2200	124.95	1083.651	1054.00402	0.000922806
2201	125	1143.24	1080.91888	0.000874707
2202	125.05	1126.152	1059.8819	0.00088798
2203	125.1	1046.71	996.78158	0.000955374
2204	125.15	922.297	903.98812	0.001084249
2205	125.2	828.4	795.51927	0.001207146
2206	125.25	700.266	683.95077	0.001428029
2207	125.3	578.674	578.80863	0.001728089
2208	125.35	477.192	486.07529	0.002095593
2209	125.4	407.103	408.52009	0.002456381
2210	125.45	344.293	346.44451	0.002904503
2211	125.5	301.771	298.52427	0.003313771
2212	125.55	259.526	262.57336	0.003853178
2213	125.6	236.872	236.14207	0.004221689
2214	125.65	212.239	216.91891	0.004711669
2215	125.7	195.788	202.94981	0.005107565
2216	125.75	191.416	192.71465	0.005224224
2217	125.8	185.378	185.11076	0.005394383
2218	125.85	174.771	179.38932	0.005721773
2219	125.9	171.513	175.07869	0.005830462
2220	125.95	169.248	171.91408	0.005908489
2221	126	169.315	169.78101	0.005906151
2222	126.05	167.267	168.67103	0.005978466
2223	126.1	167.022	168.64389	0.005987235
2224	126.15	167.251	169.78991	0.005979037
2225	126.2	170.701	172.1883	0.005858196
2226	126.25	175.892	175.86012	0.005685307
2227	126.3	178.662	180.71618	0.005597161
2228	126.35	181.167	186.49788	0.005519769
2229	126.4	193.199	192.70819	0.00517601
2230	126.45	198.263	198.55123	0.005043805
2231	126.5	202.176	202.96542	0.004946186
2232	126.55	205.787	204.88547	0.004859393
2233	126.6	206.748	203.69949	0.004836806
2234	126.65	204.42	199.54881	0.004891889
2235	126.7	203.992	193.19345	0.004902153
2236	126.75	184.875	185.62551	0.00540906
2237	126.8	181.242	177.75298	0.005517485
2238	126.85	180.714	170.25628	0.005533606
2239	126.9	163.272	163.56458	0.006124749
2240	126.95	163.181	157.88788	0.006128164
2241	127	153.103	153.26886	0.006531551
2242	127.05	154.829	149.63681	0.006458738
2243	127.1	149.499	146.85621	0.006689008
2244	127.15	149.619	144.7664	0.006683643
2245	127.2	147.531	143.2101	0.006778236
2246	127.25	148.668	142.0506	0.006726397
2247	127.3	141.797	141.17904	0.007052335
2248	127.35	141.27	140.51454	0.007078644
2249	127.4	143.425	140.00027	0.006972285
2250	127.45	141.426	139.59793	0.007070836
2251	127.5	148.774	139.28253	0.006721605
2252	127.55	147.005	139.03791	0.00680249
2253	127.6	143.5	138.85368	0.006968641
2254	127.65	140.574	138.72302	0.007113691
2255	127.7	137.404	138.64144	0.007277809
2256	127.75	136.059	138.60593	0.007349753
2257	127.8	136.998	138.59226	0.007299377
2258	127.85	136.029	138.63483	0.007351374
2259	127.9	144.83	138.72754	0.006904647
2260	127.95	142.699	138.86437	0.007007758
2261	128	143.578	139.04443	0.006964855
2262	128.05	142.29	139.26888	0.007027901
2263	128.1	144.407	139.53943	0.006924872
2264	128.15	141.198	139.85835	0.007082253
2265	128.2	136.721	140.22847	0.007314165
2266	128.25	138.6	140.65329	0.007215007
2267	128.3	142.202	141.13703	0.00703225
2268	128.35	145.529	141.68471	0.006871483
2269	128.4	143.958	142.30226	0.00694647
2270	128.45	146.549	142.99672	0.006823656
2271	128.5	145.258	143.77636	0.006884302
2272	128.55	143.793	144.65091	0.006954441
2273	128.6	148.115	145.63191	0.006751511
2274	128.65	152.618	146.733	0.006552307
2275	128.7	143.595	147.9704	0.006964031
2276	128.75	149.171	149.36365	0.006703716
2277	128.8	151.419	150.93646	0.006604191
2278	128.85	153.553	152.71828	0.006512409
2279	128.9	158.363	154.74674	0.006314606
2280	128.95	159.954	157.07177	0.006251797
2281	129	166.157	159.76271	0.006018404
2282	129.05	165.54	162.92001	0.006040836
2283	129.1	172.233	166.69394	0.005806088
2284	129.15	176.256	171.31279	0.005673566
2285	129.2	190.001	177.12226	0.00526313
2286	129.25	192.777	184.63541	0.005187341
2287	129.3	200.369	194.58797	0.004990792
2288	129.35	224.567	207.98715	0.004453014
2289	129.4	240.568	226.13445	0.004156829
2290	129.45	258.645	250.59732	0.003866303
2291	129.5	303.664	283.1041	0.003293113
2292	129.55	344.621	325.34496	0.002901738
2293	129.6	387.403	378.67751	0.002581291
2294	129.65	444.032	443.75158	0.00225209
2295	129.7	508.633	520.0702	0.001966054
2296	129.75	586.487	605.48152	0.001705068
2297	129.8	669.599	695.57972	0.001493431
2298	129.85	751.506	783.10983	0.001330661
2299	129.9	848.475	857.91508	0.001178585
2300	129.95	886.827	908.51753	0.001127616
2301	130	896.568	925.83363	0.001115364
2302	130.05	881.38	907.09337	0.001134584
2303	130.1	824.74	856.76442	0.001212503
2304	130.15	760.417	783.99967	0.001315068
2305	130.2	668.537	699.12753	0.001495804
2306	130.25	589.774	611.26003	0.001695565
2307	130.3	501.469	527.2754	0.001994141
2308	130.35	437.63	451.66049	0.002285035
2309	130.4	385.082	386.7774	0.00259685
2310	130.45	334.406	333.30811	0.002990377
2311	130.5	302.668	290.74093	0.00330395
2312	130.55	270.364	257.82561	0.003698717
2313	130.6	253.195	232.95881	0.003949525
2314	130.65	235.296	214.47874	0.004249966
2315	130.7	212.398	200.86161	0.004708142
2316	130.75	214.032	190.8268	0.004672199
2317	130.8	201.579	183.36927	0.004960834
2318	130.85	190.695	177.74319	0.005243976
2319	130.9	189.874	173.41988	0.005266651
2320	130.95	180.016	170.03777	0.005555062
2321	131	179.249	167.35574	0.005578832
2322	131.05	170.18	165.21521	0.005876131
2323	131.1	167.02	163.51211	0.005987307
2324	131.15	164.606	162.17766	0.006075113
2325	131.2	160.582	161.16604	0.006227348
2326	131.25	164.232	160.4468	0.006088947
2327	131.3	163.406	160.00056	0.006119726
2328	131.35	167.278	159.81665	0.005978072
2329	131.4	169.097	159.89236	0.005913765
2330	131.45	161.147	160.23326	0.006205514
2331	131.5	166.727	160.84913	0.005997829
2332	131.55	169.679	161.77769	0.005893481
2333	131.6	172.587	163.06694	0.005794179
2334	131.65	171.097	164.7925	0.005844638
2335	131.7	181.689	167.07308	0.005503911
2336	131.75	179.717	170.0883	0.005564304
2337	131.8	179.663	174.10001	0.005565976
2338	131.85	187.525	179.47548	0.005332622
2339	131.9	206.702	186.70675	0.004837883
2340	131.95	213.996	196.41847	0.004672985
2341	132	226.851	209.35461	0.00440818
2342	132.05	244.187	226.33475	0.004095222
2343	132.1	254.91	248.1737	0.003922953
2344	132.15	288.729	275.56406	0.003463455
2345	132.2	311.243	308.92747	0.003212924
2346	132.25	345.726	348.24231	0.002892464
2347	132.3	387.286	392.849	0.002582071
2348	132.35	419.275	441.22426	0.002385069
2349	132.4	479.66	490.73431	0.00208481
2350	132.45	542.987	537.47113	0.001841665
2351	132.5	571.701	576.52466	0.001749166
2352	132.55	610.562	603.07394	0.001637835
2353	132.6	628.22	614.13868	0.001591799
2354	132.65	621.141	609.88805	0.00160994
2355	132.7	609.509	593.48246	0.001640665
2356	132.75	577.997	569.72149	0.001730113
2357	132.8	532.475	543.55347	0.001878022
2358	132.85	506.483	519.08195	0.0019744
2359	132.9	475.476	499.07357	0.002103156
2360	132.95	479.875	484.75876	0.002083876
2361	133	477.484	475.80199	0.002094311
2362	133.05	489.33	470.37703	0.002043611
2363	133.1	494.489	465.53403	0.00202229
2364	133.15	498.8	457.98815	0.002004812
2365	133.2	476.602	445.21694	0.002098187
2366	133.25	453.362	426.28024	0.002205743
2367	133.3	408.124	401.94244	0.002450236
2368	133.35	368.872	373.9468	0.002710967
2369	133.4	334.597	344.33303	0.00298867
2370	133.45	296.696	314.96093	0.003370453
2371	133.5	272.945	287.26171	0.003663742
2372	133.55	250.413	262.27313	0.003993403
2373	133.6	230.972	240.53012	0.004329529
2374	133.65	208.557	222.20767	0.004794852
2375	133.7	207.629	207.19839	0.004816283
2376	133.75	191.079	195.20466	0.005233437
2377	133.8	182.697	185.82107	0.005473544
2378	133.85	178.051	178.60407	0.005616368
2379	133.9	170.01	173.124	0.005882007
2380	133.95	166.557	168.99846	0.006003951
2381	134	159.332	165.90902	0.006276203
2382	134.05	161.143	163.60518	0.006205668
2383	134.1	161.912	161.89879	0.006176194
2384	134.15	154.695	160.65264	0.006464333
2385	134.2	158.879	159.77324	0.006294098
2386	134.25	160.33	159.19874	0.006237136
2387	134.3	151.081	158.89104	0.006618966
2388	134.35	151.56	158.83014	0.006598047
2389	134.4	153.448	159.01111	0.006516866
2390	134.45	151.346	159.4434	0.006607376
2391	134.5	157.8	160.15241	0.006337136
2392	134.55	160.126	161.1831	0.006245082
2393	134.6	164.416	162.60552	0.006082133
2394	134.65	158.247	164.52149	0.006319235
2395	134.7	161.255	167.07164	0.006201358
2396	134.75	160.38	170.44092	0.006235191
2397	134.8	171.857	174.86045	0.005818791
2398	134.85	177.168	180.58673	0.00564436
2399	134.9	176.637	187.94574	0.005661328
2400	134.95	189.45	197.23795	0.005278438
2401	135	193.098	208.73314	0.005178718
2402	135.05	216.004	222.62667	0.004629544
2403	135.1	228.598	238.9877	0.004374491
2404	135.15	250	257.7016	0.004
2405	135.2	278.73	278.4067	0.003587701
2406	135.25	298.621	300.4238	0.003348726
2407	135.3	320.321	322.69099	0.003121868
2408	135.35	344.851	343.75921	0.002899803
2409	135.4	373.401	361.96047	0.002678086
2410	135.45	391.644	375.8364	0.002553339
2411	135.5	396.621	384.71572	0.002521299
2412	135.55	391.795	389.09749	0.002552355
2413	135.6	394.031	390.59226	0.002537871
2414	135.65	400.143	391.48753	0.002499107
2415	135.7	390.608	394.24976	0.002560111
2416	135.75	382.554	401.14244	0.00261401
2417	135.8	374.56	413.97112	0.002669799
2418	135.85	400.859	433.9108	0.002494643
2419	135.9	425.2	461.37433	0.002351834
2420	135.95	443.122	495.89533	0.002256715
2421	136	473.993	536.00329	0.002109736
2422	136.05	511.719	579.08761	0.001954198
2423	136.1	560.829	621.31964	0.001783075
2424	136.15	596.469	657.83854	0.001676533
2425	136.2	620.781	683.48028	0.001610874
2426	136.25	659.171	694.07382	0.001517057
2427	136.3	646.588	687.73897	0.00154658
2428	136.35	627.173	665.36025	0.001594456
2429	136.4	592.645	629.99773	0.001687351
2430	136.45	558.342	585.77665	0.001791017
2431	136.5	505.987	536.9089	0.001976335
2432	136.55	456.311	487.10413	0.002191488
2433	136.6	414.056	439.31077	0.002415132
2434	136.65	354.117	395.65725	0.002823925
2435	136.7	340.903	357.50616	0.002933386
2436	136.75	314.291	325.57149	0.003181765
2437	136.8	290.7	300.06509	0.003439972
2438	136.85	278.757	280.84648	0.003587354
2439	136.9	266.262	267.55932	0.003755699
2440	136.95	257.2	259.7418	0.003888025
2441	137	254.306	256.90884	0.003932271
2442	137.05	247.476	258.60327	0.004040796
2443	137.1	261.332	264.41797	0.00382655
2444	137.15	267.864	273.99361	0.003733238
2445	137.2	272.35	286.99558	0.003671746
2446	137.25	295.419	303.07315	0.003385023
2447	137.3	318.735	321.80626	0.003137403
2448	137.35	336.716	342.65902	0.002969862
2449	137.4	358.971	364.98132	0.00278574
2450	137.45	395.848	388.10664	0.002526222
2451	137.5	409.377	411.54271	0.002442736
2452	137.55	424.427	435.15541	0.002356118
2453	137.6	447.498	459.21032	0.002234647
2454	137.65	456.383	484.21981	0.002191142
2455	137.7	463.572	510.65692	0.002157162
2456	137.75	489.641	538.63667	0.002042313
2457	137.8	507.426	567.6057	0.001970731
2458	137.85	531.042	596.14541	0.00188309
2459	137.9	576.384	621.91865	0.001734954
2460	137.95	616.961	641.90938	0.001620848
2461	138	653.949	653.08717	0.001529171
2462	138.05	671.479	653.34828	0.00148925
2463	138.1	666.194	642.26335	0.001501064
2464	138.15	663.371	621.1961	0.001507452
2465	138.2	636.813	592.81523	0.00157032
2466	138.25	586.043	560.39155	0.001706359
2467	138.3	544.031	527.22623	0.001838131
2468	138.35	494.256	496.3108	0.002023243
2469	138.4	454.234	470.16334	0.002201508
2470	138.45	422.225	450.76216	0.002368405
2471	138.5	409.297	439.52779	0.002443214
2472	138.55	404.372	437.32796	0.00247297
2473	138.6	399.232	444.49651	0.002504809
2474	138.65	409.542	460.83052	0.002441752
2475	138.7	438.741	485.58072	0.002279249
2476	138.75	453.871	517.44797	0.002203269
2477	138.8	500.279	554.52018	0.001998885
2478	138.85	538.607	594.20688	0.001856641
2479	138.9	574.224	633.23367	0.001741481
2480	138.95	620.443	667.84266	0.001611752
2481	139	653.536	694.34828	0.001530138
2482	139.05	695.446	710.00078	0.001437926
2483	139.1	699.102	713.78255	0.001430406
2484	139.15	704.618	706.66766	0.001419209
2485	139.2	695.533	691.21938	0.001437746
2486	139.25	669.749	670.82964	0.001493097
2487	139.3	639.717	648.98996	0.001563191
2488	139.35	599.619	628.78176	0.001667726
2489	139.4	590.912	612.57846	0.001692299
2490	139.45	562.028	601.88488	0.001779271
2491	139.5	552.672	597.23018	0.001809391
2492	139.55	549.73	598.20617	0.001819075
2493	139.6	551.193	603.35719	0.001814247
2494	139.65	568.802	610.31973	0.001758081
2495	139.7	591.229	616.0741	0.001691392
2496	139.75	612.515	617.46843	0.001632613
2497	139.8	623.97	611.93837	0.001602641
2498	139.85	634.085	598.13438	0.001577076
2499	139.9	611.74	576.13749	0.001634681
2500	139.95	573.644	547.20268	0.001743241
2501	140	533.401	513.25745	0.001874762
2502	140.05	497.598	476.42628	0.002009654
2503	140.1	445.452	438.70917	0.002244911
2504	140.15	406.553	401.80964	0.002459704
2505	140.2	363.746	367.06277	0.002749171
2506	140.25	333.558	335.42403	0.002997979
2507	140.3	300.198	307.49673	0.003331135
2508	140.35	272.91	283.58485	0.003664212
2509	140.4	249.977	263.75959	0.004000368
2510	140.45	231.003	247.93	0.004328948
2511	140.5	221.187	235.90961	0.004521061
2512	140.55	204.045	227.47359	0.00490088
2513	140.6	200.105	222.40268	0.004997376
2514	140.65	196.726	220.51131	0.005083212
2515	140.7	192.31	221.65928	0.005199938
2516	140.75	197.625	225.7475	0.005060089
2517	140.8	198.949	232.70009	0.005026414
2518	140.85	203.62	242.43566	0.004911109
2519	140.9	218.508	254.83117	0.004576491
2520	140.95	228.598	269.68082	0.004374491
2521	141	247.134	286.65125	0.004046388
2522	141.05	279.304	305.23253	0.003580328
2523	141.1	300.497	324.68655	0.00332782
2524	141.15	332.26	344.00234	0.003009691
2525	141.2	366.654	361.88749	0.002727367
2526	141.25	380.995	376.84528	0.002624706
2527	141.3	424.002	387.38087	0.002358479
2528	141.35	432.954	392.28078	0.002309714
2529	141.4	434.899	391.02387	0.002299384
2530	141.45	422.768	383.75158	0.002365364
2531	141.5	388.784	371.24606	0.002572122
2532	141.55	355.559	354.68041	0.002812473
2533	141.6	323.899	335.36428	0.003087382
2534	141.65	300.091	314.55921	0.003332323
2535	141.7	285.47	293.36989	0.003502995
2536	141.75	259.629	272.694	0.00385165
2537	141.8	230.008	253.20745	0.004347675
2538	141.85	212.66	235.37142	0.004702342
2539	141.9	200.558	219.45374	0.004986089
2540	141.95	189.119	205.5592	0.005287676
2541	142	189.456	193.66417	0.00527827
2542	142.05	175.572	183.6514	0.005695669
2543	142.1	170.067	175.34236	0.005880036
2544	142.15	158.967	168.5253	0.006290614
2545	142.2	153.16	162.97789	0.00652912
2546	142.25	154.629	158.4843	0.006467092
2547	142.3	154.159	154.84673	0.006486809
2548	142.35	151.624	151.892	0.006595262
2549	142.4	152.012	149.47418	0.006578428
2550	142.45	148.627	147.47424	0.006728253
2551	142.5	148.604	145.76418	0.006729294
2552	142.55	146.686	144.32609	0.006817283
2553	142.6	148.127	143.08995	0.006750964
2554	142.65	144.309	142.01005	0.006929575
2555	142.7	144.246	141.05383	0.006932601
2556	142.75	143.44	140.19685	0.006971556
2557	142.8	145.503	139.42189	0.006872711
2558	142.85	141.587	138.71612	0.007062795
2559	142.9	148.097	138.06915	0.006752331
2560	142.95	146.602	137.47424	0.006821189
2561	143	142.898	136.92496	0.006997999
2562	143.05	135.2	136.41623	0.00739645
2563	143.1	138.614	135.94383	0.007214279
2564	143.15	147.131	135.50418	0.006796664
2565	143.2	139.711	135.0942	0.007157633
2566	143.25	136.498	134.71119	0.007326115
2567	143.3	135.384	134.35281	0.007386397
2568	143.35	133.162	134.01697	0.00750965
2569	143.4	139.667	133.7018	0.007159887
2570	143.45	142.171	133.40566	0.007033783
2571	143.5	143.952	133.12705	0.00694676
2572	143.55	135.474	132.86464	0.00738149
2573	143.6	137.185	132.61723	0.007289427
2574	143.65	143.941	132.38373	0.006947291
2575	143.7	140.247	132.16316	0.007130277
2576	143.75	143.656	131.95462	0.006961074
2577	143.8	146.322	131.75731	0.006834242
2578	143.85	141.644	131.57047	0.007059953
2579	143.9	137.961	131.39344	0.007248425
2580	143.95	140.93	131.22559	0.007095721
2581	144	142.864	131.06636	0.006999664
2582	144.05	141.109	130.91524	0.00708672
2583	144.1	140.203	130.77173	0.007132515
2584	144.15	136.985	130.6354	0.007300069
2585	144.2	143.574	130.50584	0.006965049
2586	144.25	144.253	130.38268	0.006932265
2587	144.3	144.378	130.26557	0.006926263
2588	144.35	151.175	130.15418	0.00661485
2589	144.4	144.759	130.04822	0.006908033
2590	144.45	146.692	129.94741	0.006817004
2591	144.5	143.245	129.85148	0.006981046
2592	144.55	148.169	129.75406	0.00674905
2593	144.6	148.791	129.66333	0.006720837
2594	144.65	153.05	129.57921	0.006533812
2595	144.7	146.716	129.49997	0.006815889
2596	144.75	146.446	129.42507	0.006828456
2597	144.8	145.944	129.354	0.006851943
2598	144.85	150.642	129.28644	0.006638255
2599	144.9	155.765	129.22223	0.006419927
2600	144.95	154.498	129.16122	0.006472576
2601	145	152.068	129.10329	0.006576005



_refine_ls_goodness_of_fit_all
1.87
_journal_year
2009
_journal_page_last
299
_symmetry_space_group_name_H-M
'R 3 c'
_pd_char_colour
white
_cell_angle_beta
90
_pd_spec_mount_mode
reflection
_cell_angle_alpha
90
_diffrn_radiation_monochromator
'Ge [115]'
_chemical_formula_sum
'K0.05 Na0.95 Nb1 O3'
_chemical_formula_structural
'K Na (Nb O3)'
_journal_page_first
291
_chemical_formula_weight
164.71
_pd_proc_info_excluded_regions
'145-160\% 2\q'
_pd_meas_2theta_range_max
160
_diffrn_measurement_device_type
D2B
_symmetry_cell_setting
trigonal
_diffrn_ambient_temperature
100
_journal_coeditor_code
WF5039
_pd_meas_2theta_range_inc
0.05
_pd_spec_size_axial
20
_journal_name_full
'Acta Crystallographica, Section B'
_journal_volume
65
_cell_volume
363.683(7)
_journal_issue
3
_pd_spec_mounting
'Vanadium can packed with powder'
_pd_spec_shape
cylinder
_pd_proc_ls_prof_R_factor
0.050
_diffrn_radiation_wavelength
1.60
_pd_spec_size_equat
50
_pd_block_diffractogram_id
KNN05at100K
_pd_spec_size_thick
20
_pd_meas_scan_method
step
_diffrn_radiation_type
Neutron
_journal_paper_category
FA
_journal_date_accepted
2009-03-25
_pd_proc_ls_prof_wR_factor
0.067
_cell_angle_gamma
120
_refine_ls_number_parameters
24
_computing_structure_refinement
'TOPAS Academic'
_cell_formula_units_Z
6
_cell_length_a
5.51972(5)
_cell_length_b
5.51972(5)
_pd_meas_number_of_points
2601
_cell_length_c
13.78350(16)
_chemical_name_systematic
'Sodium Potassium Niobate'
_pd_proc_ls_prof_wR_expected
0.018
_journal_date_recd_electronic
2008-12-13
_pd_meas_2theta_range_min
0.10
loop_
_symmetry_equiv_pos_as_xyz

;-x+y, -x, z
;

;-x+y, y, z+1/2
;

;-x+y+1/3, -x-1/3, z-1/3
;

;-x+y+1/3, y-1/3, z+1/6
;

;-x+y-1/3, -x+1/3, z+1/3
;

;-x+y-1/3, y+1/3, z-1/6
;

;-y, -x, z+1/2
;

;-y, x-y, z
;

;-y+1/3, -x-1/3, z+1/6
;

;-y+1/3, x-y-1/3, z-1/3
;

;-y-1/3, -x+1/3, z-1/6
;

;-y-1/3, x-y+1/3, z+1/3
;

;x, y, z
;

;x, x-y, z+1/2
;

;x+1/3, y-1/3, z-1/3
;

;x+1/3, x-y-1/3, z+1/6
;

;x-1/3, y+1/3, z+1/3
;

;x-1/3, x-y+1/3, z-1/6
;

loop_
_atom_type_symbol
Na1+
K1+
Nb5+
O2-

loop_
_atom_site_type_symbol
_atom_site_label
_atom_site_fract_x
_atom_site_fract_y
_atom_site_fract_z
_atom_site_occupancy
Na+1 Na1 0 0 0.27240(19) 0.95
K+1 K1 0 0 0.27240(19) 0.05
Nb+5 Nb1 0 0 0.01596(10) 1
O-2 O1 0.1061(2) 0.3369(3) 0.08333 1



# powder data simulated using PLATON:

data_KNN05at100K_simulated_1.60

_publcif_pd_cifplot 'simulated 2021-03-25'

