data_KNN30at100K

_pd_block_id     KNN30at100K
_pd_proc_2theta_range_min  15 
_pd_proc_2theta_range_max 145
_pd_proc_ls_background_function   'Chebychev with six coefficients' 

loop_
      
_pd_data_point_id                           
      
_pd_meas_2theta_corrected     
_pd_meas_intensity_total                     
      
_pd_calc_intensity_total                     
      
_pd_proc_ls_weight
1	15	63.518	60.86119	0.015743569
2	15.05	65.279	60.86389	0.015318862
3	15.1	61.842	60.86661	0.01617024
4	15.15	59.525	60.86952	0.016799664
5	15.2	64.183	60.87303	0.01558045
6	15.25	65.68	60.87518	0.015225335
7	15.3	63.836	60.87724	0.015665142
8	15.35	61.788	60.87922	0.016184372
9	15.4	63.589	60.88112	0.01572599
10	15.45	64.479	60.88293	0.015508925
11	15.5	63.231	60.88466	0.015815027
12	15.55	60.096	60.8863	0.016640043
13	15.6	61.666	60.88787	0.016216392
14	15.65	65.687	60.88936	0.015223712
15	15.7	61.599	60.89077	0.01623403
16	15.75	58.54	60.8921	0.017082337
17	15.8	57.605	60.89335	0.017359604
18	15.85	61.234	60.89453	0.016330797
19	15.9	63.814	60.89564	0.015670543
20	15.95	64.129	60.89667	0.015593569
21	16	58.135	60.89763	0.017201342
22	16.05	62.328	60.89852	0.016044154
23	16.1	61.954	60.89934	0.016141008
24	16.15	58.69	60.90009	0.017038678
25	16.2	56.539	60.90077	0.017686906
26	16.25	65.01	60.90139	0.015382249
27	16.3	62.709	60.90194	0.015946674
28	16.35	60.002	60.90243	0.016666111
29	16.4	60.686	60.90286	0.016478265
30	16.45	59.963	60.90322	0.016676951
31	16.5	57.766	60.90353	0.017311221
32	16.55	60.977	60.90377	0.016399626
33	16.6	60.393	60.90397	0.01655821
34	16.65	62.465	60.9041	0.016008965
35	16.7	56.333	60.90418	0.017751584
36	16.75	56	60.90421	0.017857143
37	16.8	59.785	60.90419	0.016726604
38	16.85	64.832	60.90412	0.015424482
39	16.9	60.31	60.90401	0.016580998
40	16.95	60.346	60.90385	0.016571107
41	17	61.51	60.90364	0.016257519
42	17.05	58.169	60.9034	0.017191287
43	17.1	60.802	60.90311	0.016446827
44	17.15	64.726	60.90279	0.015449742
45	17.2	59.574	60.90243	0.016785846
46	17.25	62.115	60.90204	0.016099171
47	17.3	59.635	60.90162	0.016768676
48	17.35	56.969	60.90117	0.017553406
49	17.4	61.819	60.90069	0.016176256
50	17.45	59.951	60.90019	0.016680289
51	17.5	58.707	60.89967	0.017033744
52	17.55	61.126	60.89913	0.016359651
53	17.6	60.23	60.89857	0.016603022
54	17.65	63.175	60.89801	0.015829046
55	17.7	60.753	60.89743	0.016460093
56	17.75	59.318	60.89684	0.016858289
57	17.8	57.897	60.89626	0.017272052
58	17.85	57.884	60.89567	0.017275931
59	17.9	57.515	60.89508	0.017386769
60	17.95	59.664	60.89451	0.016760526
61	18	57.046	60.89394	0.017529713
62	18.05	62.251	60.89339	0.016063999
63	18.1	61.229	60.89286	0.01633213
64	18.15	57.33	60.89235	0.017442875
65	18.2	58.763	60.89187	0.017017511
66	18.25	60.844	60.89143	0.016435474
67	18.3	59.876	60.89102	0.016701182
68	18.35	63.88	60.89065	0.015654352
69	18.4	62.487	60.89034	0.016003329
70	18.45	61.933	60.89008	0.016146481
71	18.5	59.783	60.88988	0.016727163
72	18.55	58.182	60.88974	0.017187446
73	18.6	61.914	60.88968	0.016151436
74	18.65	59.275	60.8897	0.016870519
75	18.7	59.309	60.88981	0.016860847
76	18.75	55.449	60.89002	0.01803459
77	18.8	56.751	60.89033	0.017620835
78	18.85	57.887	60.89076	0.017275036
79	18.9	60.844	60.8913	0.016435474
80	18.95	59.495	60.89198	0.016808135
81	19	54.741	60.89281	0.018267843
82	19.05	64.144	60.89378	0.015589923
83	19.1	63.03	60.89492	0.015865461
84	19.15	60.067	60.89624	0.016648076
85	19.2	57.58	60.89775	0.017367141
86	19.25	56.571	60.89947	0.017676902
87	19.3	60.981	60.9014	0.01639855
88	19.35	60.972	60.90357	0.016400971
89	19.4	63.974	60.906	0.01563135
90	19.45	62.646	60.90869	0.015962711
91	19.5	59.512	60.91167	0.016803334
92	19.55	58.505	60.91496	0.017092556
93	19.6	57.448	60.91858	0.017407046
94	19.65	61.892	60.92256	0.016157177
95	19.7	62.127	60.92691	0.016096061
96	19.75	58.121	60.93167	0.017205485
97	19.8	59.684	60.93687	0.016754909
98	19.85	58.064	60.94254	0.017222375
99	19.9	59.41	60.9487	0.016832183
100	19.95	58.134	60.9554	0.017201638
101	20	62.051	60.96267	0.016115776
102	20.05	59.573	60.97057	0.016786128
103	20.1	62.328	60.97912	0.016044154
104	20.15	58.016	60.98839	0.017236624
105	20.2	60.817	60.99842	0.016442771
106	20.25	59.258	61.00927	0.016875359
107	20.3	57.974	61.02101	0.017249112
108	20.35	56.637	61.0337	0.017656302
109	20.4	55.799	61.04743	0.017921468
110	20.45	58.1	61.06227	0.017211704
111	20.5	58.836	61.0783	0.016996397
112	20.55	59.618	61.09564	0.016773458
113	20.6	56.29	61.11439	0.017765145
114	20.65	60.773	61.13467	0.016454676
115	20.7	62.37	61.15661	0.016033349
116	20.75	64.252	61.18035	0.015563718
117	20.8	62.868	61.20606	0.015906343
118	20.85	61.475	61.23391	0.016266775
119	20.9	63.658	61.26411	0.015708945
120	20.95	63.007	61.29688	0.015871252
121	21	60.463	61.33253	0.01653904
122	21.05	57.782	61.37135	0.017306428
123	21.1	57.388	61.41369	0.017425246
124	21.15	61.872	61.45996	0.0161624
125	21.2	63.425	61.51069	0.015766654
126	21.25	61.696	61.56682	0.016208506
127	21.3	59.757	61.62896	0.016734441
128	21.35	59.326	61.69441	0.016856016
129	21.4	61.666	61.76624	0.016216392
130	21.45	61.612	61.84522	0.016230604
131	21.5	60	61.93224	0.016666667
132	21.55	61.672	62.02835	0.016214814
133	21.6	62.168	62.13475	0.016085446
134	21.65	61.896	62.25286	0.016156133
135	21.7	57.998	62.38435	0.017241974
136	21.75	60.486	62.53122	0.016532751
137	21.8	63.254	62.69587	0.015809277
138	21.85	67.608	62.88132	0.014791149
139	21.9	68.954	63.09152	0.014502422
140	21.95	68.335	63.33208	0.014633789
141	22	76.676	63.61182	0.013041891
142	22.05	76.828	63.94589	0.013016088
143	22.1	77.585	64.36163	0.012889089
144	22.15	74.56	64.90879	0.013412017
145	22.2	79.902	65.67573	0.012515331
146	22.25	87.726	66.81237	0.011399129
147	22.3	93.486	68.55907	0.010696789
148	22.35	96.828	71.27799	0.010327591
149	22.4	100.269	75.48136	0.009973172
150	22.45	104.742	81.85108	0.009547269
151	22.5	113.514	91.2474	0.008809486
152	22.55	124.854	104.71019	0.008009355
153	22.6	132.921	123.46114	0.007523266
154	22.65	145.785	148.91485	0.006859416
155	22.7	161.211	182.69234	0.006203051
156	22.75	193.368	226.59029	0.005171486
157	22.8	235.395	282.40194	0.004248179
158	22.85	280.093	351.45754	0.003570243
159	22.9	334.362	433.81518	0.00299077
160	22.95	407.343	527.21898	0.002454934
161	23	503.284	626.11754	0.00198695
162	23.05	615.797	721.29496	0.001623912
163	23.1	726.969	800.59057	0.001375574
164	23.15	833.844	850.91307	0.001199265
165	23.2	896.407	861.35499	0.001115565
166	23.25	891.759	826.85623	0.001121379
167	23.3	834.258	751.02738	0.00119867
168	23.35	715.672	645.86906	0.001397288
169	23.4	584.503	527.6327	0.001710855
170	23.45	452.315	411.84156	0.002210849
171	23.5	363.612	310.00554	0.002750184
172	23.55	294.532	228.3513	0.003395217
173	23.6	240.015	168.14163	0.004166406
174	23.65	192.732	127.0527	0.005188552
175	23.7	163.136	100.93503	0.006129855
176	23.75	137.007	85.33928	0.007298897
177	23.8	111.872	76.47152	0.008938787
178	23.85	94.088	71.56065	0.010628348
179	23.9	80.753	68.8159	0.012383441
180	23.95	73.623	67.19414	0.013582712
181	24	70.833	66.13962	0.014117713
182	24.05	69.282	65.37721	0.014433763
183	24.1	67.924	64.77737	0.014722337
184	24.15	65.468	64.27966	0.015274638
185	24.2	63.865	63.85442	0.015658029
186	24.25	61.666	63.48523	0.016216392
187	24.3	59.302	63.16155	0.016862838
188	24.35	59.81	62.87575	0.016719612
189	24.4	62.18	62.62192	0.016082342
190	24.45	55.088	62.39529	0.018152774
191	24.5	58.366	62.19195	0.017133263
192	24.55	64.097	62.00869	0.015601354
193	24.6	64.887	61.8428	0.015411408
194	24.65	60.581	61.69204	0.016506826
195	24.7	62.34	61.5545	0.016041065
196	24.75	55.549	61.42856	0.018002124
197	24.8	58.894	61.31285	0.016979658
198	24.85	57.457	61.20619	0.01740432
199	24.9	62.321	61.10757	0.016045956
200	24.95	62.576	61.01609	0.015980568
201	25	61.433	60.93102	0.016277896
202	25.05	59.841	60.85167	0.016710951
203	25.1	58.216	60.77748	0.017177408
204	25.15	57.427	60.70792	0.017413412
205	25.2	59.345	60.64257	0.016850619
206	25.25	59.342	60.58101	0.016851471
207	25.3	61.2	60.52291	0.016339869
208	25.35	60.17	60.46795	0.016619578
209	25.4	58.605	60.41585	0.01706339
210	25.45	58.466	60.36636	0.017103958
211	25.5	61.503	60.31927	0.016259369
212	25.55	58.842	60.27438	0.016994664
213	25.6	55.78	60.23151	0.017927573
214	25.65	58.976	60.1905	0.01695605
215	25.7	60.343	60.15121	0.01657193
216	25.75	57.563	60.11349	0.01737227
217	25.8	56.656	60.07725	0.017650381
218	25.85	56.552	60.04236	0.017682841
219	25.9	61.717	60.00872	0.016202991
220	25.95	64.576	59.97626	0.015485629
221	26	61.596	59.94489	0.01623482
222	26.05	61.698	59.91453	0.016207981
223	26.1	55.065	59.88511	0.018160356
224	26.15	57.7	59.85658	0.017331023
225	26.2	58.252	59.82887	0.017166793
226	26.25	59.899	59.80194	0.01669477
227	26.3	62.323	59.77574	0.016045441
228	26.35	58.957	59.75021	0.016961514
229	26.4	59.43	59.72532	0.016826519
230	26.45	58.366	59.70104	0.017133263
231	26.5	58.326	59.67732	0.017145013
232	26.55	54.505	59.65414	0.018346941
233	26.6	58.186	59.63146	0.017186265
234	26.65	57.477	59.60925	0.017398264
235	26.7	58.527	59.5875	0.017086131
236	26.75	56.705	59.56618	0.017635129
237	26.8	58.307	59.54526	0.017150599
238	26.85	55.732	59.52472	0.017943013
239	26.9	56.511	59.50455	0.01769567
240	26.95	57.427	59.48472	0.017413412
241	27	59.246	59.46523	0.016878777
242	27.05	56.282	59.44606	0.01776767
243	27.1	58.385	59.42718	0.017127687
244	27.15	58.813	59.40859	0.017003044
245	27.2	58.359	59.39028	0.017135318
246	27.25	55.319	59.37224	0.018076972
247	27.3	56.992	59.35444	0.017546322
248	27.35	57.722	59.33689	0.017324417
249	27.4	59.121	59.31958	0.016914464
250	27.45	62.275	59.30249	0.016057808
251	27.5	64.815	59.28562	0.015428527
252	27.55	59.325	59.26897	0.0168563
253	27.6	61.981	59.25251	0.016133977
254	27.65	56.208	59.23626	0.017791062
255	27.7	59.614	59.2202	0.016774583
256	27.75	56.417	59.20432	0.017725154
257	27.8	56.414	59.18863	0.017726096
258	27.85	58.183	59.17312	0.017187151
259	27.9	55.575	59.15778	0.017993702
260	27.95	57.996	59.14261	0.017242568
261	28	60.506	59.12761	0.016527287
262	28.05	54.662	59.11277	0.018294245
263	28.1	56.566	59.0981	0.017678464
264	28.15	56.252	59.08359	0.017777146
265	28.2	59.778	59.06924	0.016728562
266	28.25	56.525	59.05505	0.017691287
267	28.3	56.549	59.04102	0.017683779
268	28.35	58.751	59.02714	0.017020987
269	28.4	60.44	59.01342	0.016545334
270	28.45	57.111	58.99985	0.017509762
271	28.5	56.146	58.98645	0.017810708
272	28.55	59.214	58.9732	0.016887898
273	28.6	55.152	58.96011	0.018131709
274	28.65	56.477	58.94718	0.017706323
275	28.7	58.44	58.93441	0.017111567
276	28.75	60.035	58.92181	0.01665695
277	28.8	57.39	58.90937	0.017424638
278	28.85	59.811	58.89711	0.016719333
279	28.9	60.419	58.88502	0.016551085
280	28.95	57.32	58.87311	0.017445918
281	29	56.311	58.86138	0.01775852
282	29.05	54.494	58.84984	0.018350644
283	29.1	60.066	58.83849	0.016648353
284	29.15	55.279	58.82733	0.018090052
285	29.2	54.964	58.81639	0.018193727
286	29.25	57.634	58.80565	0.017350869
287	29.3	56.404	58.79513	0.017729239
288	29.35	62.386	58.78484	0.016029237
289	29.4	58.285	58.77479	0.017157073
290	29.45	56.263	58.76498	0.01777367
291	29.5	54.41	58.75543	0.018378974
292	29.55	58.398	58.74615	0.017123874
293	29.6	59.256	58.73715	0.016875928
294	29.65	58.496	58.72845	0.017095186
295	29.7	56.113	58.72005	0.017821182
296	29.75	61.94	58.71198	0.016144656
297	29.8	59.832	58.70425	0.016713464
298	29.85	56.317	58.69737	0.017756628
299	29.9	56.251	58.69261	0.017777462
300	29.95	60.505	58.69093	0.01652756
301	30	60.265	58.69449	0.016593379
302	30.05	62.284	58.7133	0.016055488
303	30.1	59.874	58.73731	0.01670174
304	30.15	60.942	58.73302	0.016409045
305	30.2	62.029	58.72928	0.016121492
306	30.25	58.43	58.72612	0.017114496
307	30.3	54.636	58.7236	0.01830295
308	30.35	59.149	58.72175	0.016906457
309	30.4	61.475	58.72062	0.016266775
310	30.45	61.372	58.72027	0.016294075
311	30.5	58.26	58.72075	0.017164435
312	30.55	60.098	58.72213	0.016639489
313	30.6	60.759	58.72449	0.016458467
314	30.65	61.751	58.7279	0.01619407
315	30.7	56.449	58.73245	0.017715106
316	30.75	54.495	58.73824	0.018350307
317	30.8	56.916	58.74538	0.017569752
318	30.85	53.952	58.75399	0.018534994
319	30.9	55.871	58.7642	0.017898373
320	30.95	60.367	58.77618	0.016565342
321	31	57.784	58.7901	0.017305829
322	31.05	53.78	58.80615	0.018594273
323	31.1	54.629	58.82454	0.018305296
324	31.15	57.604	58.84555	0.017359906
325	31.2	51.94	58.86944	0.019252984
326	31.25	52.556	58.89655	0.019027323
327	31.3	56.627	58.92725	0.01765942
328	31.35	59.272	58.96197	0.016871373
329	31.4	57.397	59.00123	0.017422513
330	31.45	56.845	59.04559	0.017591697
331	31.5	58.96	59.09573	0.016960651
332	31.55	54.293	59.15246	0.018418581
333	31.6	57.817	59.21671	0.017295951
334	31.65	60.032	59.28961	0.016657783
335	31.7	57.893	59.37247	0.017273245
336	31.75	59.908	59.46692	0.016692261
337	31.8	62.15	59.5749	0.016090105
338	31.85	62.567	59.69889	0.015982866
339	31.9	58.946	59.84206	0.01696468
340	31.95	58.247	60.00889	0.017168266
341	32	60.331	60.20616	0.016575227
342	32.05	59.288	60.44524	0.01686682
343	32.1	60.456	60.74642	0.016540955
344	32.15	65.718	61.14675	0.015216531
345	32.2	64.656	61.71322	0.015466469
346	32.25	62.721	62.56295	0.015943623
347	32.3	65.46	63.89134	0.015276505
348	32.35	67.54	66.00763	0.014806041
349	32.4	74.939	69.37376	0.013344187
350	32.45	79.399	74.63718	0.012594617
351	32.5	81.092	82.63904	0.012331673
352	32.55	95.532	94.36799	0.010467697
353	32.6	107.657	110.82369	0.00928876
354	32.65	110.74	132.76855	0.009030161
355	32.7	135.648	160.38702	0.007372022
356	32.75	170.16	192.9284	0.005876822
357	32.8	200.733	228.4582	0.004981742
358	32.85	242.381	263.85743	0.004125736
359	32.9	271.015	295.16176	0.003689833
360	32.95	312.613	318.27274	0.003198843
361	33	329.142	330.03925	0.003038202
362	33.05	338.375	329.38673	0.002955301
363	33.1	330.399	317.51131	0.003026644
364	33.15	302.287	296.76917	0.003308114
365	33.2	274.135	269.53722	0.003647838
366	33.25	246.799	238.03969	0.00405188
367	33.3	217.175	204.73743	0.004604582
368	33.35	175.713	172.32673	0.005691099
369	33.4	142.08	143.14895	0.007038288
370	33.45	118.288	118.70295	0.008453943
371	33.5	103.038	99.5676	0.009705157
372	33.55	86.399	85.5489	0.011574208
373	33.6	78.564	75.91743	0.012728476
374	33.65	71.624	69.68279	0.013961801
375	33.7	67.149	65.84288	0.014892255
376	33.75	64.545	63.55172	0.015493067
377	33.8	61.552	62.18821	0.016246426
378	33.85	60.66	61.3469	0.016485328
379	33.9	58.541	60.78863	0.017082045
380	33.95	59.874	60.38387	0.01670174
381	34	58.286	60.06681	0.017156779
382	34.05	57.496	59.80493	0.017392514
383	34.1	60.368	59.58178	0.016565068
384	34.15	58.327	59.38824	0.017144719
385	34.2	56.668	59.21854	0.017646644
386	34.25	54.571	59.06862	0.018324751
387	34.3	58.622	58.93536	0.017058442
388	34.35	57.7	58.81626	0.017331023
389	34.4	60.659	58.7093	0.0164856
390	34.45	57.961	58.61281	0.01725298
391	34.5	56.91	58.5254	0.017571604
392	34.55	56.113	58.44591	0.017821182
393	34.6	58.44	58.37337	0.017111567
394	34.65	55	58.30695	0.018181818
395	34.7	54.951	58.24595	0.018198031
396	34.75	52.91	58.18977	0.018900019
397	34.8	57.019	58.13795	0.017538014
398	34.85	56.202	58.09016	0.017792961
399	34.9	59.559	58.04614	0.016790074
400	34.95	55.871	58.00601	0.017898373
401	35	57.335	57.96985	0.017441353
402	35.05	57.19	57.93399	0.017485574
403	35.1	59.513	57.90052	0.016803051
404	35.15	57.78	57.86925	0.017307027
405	35.2	58.933	57.84002	0.016968422
406	35.25	53.696	57.81266	0.018623361
407	35.3	54.713	57.78707	0.018277192
408	35.35	59.773	57.76312	0.016729962
409	35.4	59.171	57.7407	0.016900171
410	35.45	60.093	57.71974	0.016640873
411	35.5	53.797	57.70016	0.018588397
412	35.55	56.649	57.68188	0.017652562
413	35.6	56.323	57.66486	0.017754736
414	35.65	57.641	57.64903	0.017348762
415	35.7	54.986	57.63437	0.018186447
416	35.75	57.786	57.62083	0.01730523
417	35.8	56.463	57.60838	0.017710713
418	35.85	58.35	57.597	0.017137961
419	35.9	57.9	57.58667	0.017271157
420	35.95	58.885	57.57758	0.016982254
421	36	58.022	57.57023	0.017234842
422	36.05	56.8	57.56523	0.017605634
423	36.1	56.915	57.56553	0.017570061
424	36.15	56.74	57.56749	0.017624251
425	36.2	54.967	57.56347	0.018192734
426	36.25	55.097	57.56052	0.018149809
427	36.3	55.575	57.55897	0.017993702
428	36.35	56.27	57.55925	0.017771459
429	36.4	56.397	57.56211	0.01773144
430	36.45	58.501	57.57282	0.017093725
431	36.5	59.297	57.57695	0.01686426
432	36.55	61.985	57.58109	0.016132935
433	36.6	62.392	57.58656	0.016027696
434	36.65	58.244	57.59342	0.01716915
435	36.7	56.053	57.60174	0.017840258
436	36.75	59.197	57.61161	0.016892748
437	36.8	60.586	57.62312	0.016505463
438	36.85	61.438	57.63636	0.016276572
439	36.9	57.282	57.65146	0.017457491
440	36.95	56.908	57.66854	0.017572222
441	37	62.006	57.68775	0.016127472
442	37.05	62.287	57.70925	0.016054714
443	37.1	61.058	57.73322	0.01637787
444	37.15	61.848	57.75987	0.016168672
445	37.2	63.771	57.78943	0.015681109
446	37.25	59.269	57.82217	0.016872227
447	37.3	58.403	57.85839	0.017122408
448	37.35	57.547	57.89843	0.0173771
449	37.4	57.964	57.9427	0.017252088
450	37.45	59.39	57.99163	0.016837851
451	37.5	60.768	58.04576	0.016456029
452	37.55	57.598	58.10569	0.017361714
453	37.6	57.021	58.17213	0.017537399
454	37.65	58.97	58.2459	0.016957775
455	37.7	59.073	58.32799	0.016928207
456	37.75	56.427	58.41954	0.017722013
457	37.8	55.226	58.52194	0.018107413
458	37.85	60.16	58.63683	0.01662234
459	37.9	58.427	58.76623	0.017115375
460	37.95	56.905	58.91258	0.017573148
461	38	55.092	59.07896	0.018151456
462	38.05	53.207	59.26934	0.01879452
463	38.1	58.261	59.48917	0.017164141
464	38.15	59.706	59.74664	0.016748735
465	38.2	58.339	60.05541	0.017141192
466	38.25	63.189	60.44029	0.015825539
467	38.3	61.831	60.94833	0.016173117
468	38.35	63.248	61.66867	0.015810777
469	38.4	65.243	62.76494	0.015327315
470	38.45	66.313	64.52193	0.015079999
471	38.5	67.347	67.4032	0.014848471
472	38.55	74.27	72.1048	0.013464387
473	38.6	74.915	79.57359	0.013348462
474	38.65	83.132	90.94057	0.012029062
475	38.7	102.639	107.31166	0.009742885
476	38.75	111.757	129.38337	0.008947985
477	38.8	141.3	156.92864	0.007077141
478	38.85	172.186	188.31442	0.005807673
479	38.9	200.855	220.28472	0.004978716
480	38.95	240.945	248.20418	0.004150325
481	39	275.516	266.85049	0.003629553
482	39.05	277.582	271.79319	0.003602539
483	39.1	281.818	261.254	0.003548389
484	39.15	251.758	237.42791	0.003972068
485	39.2	209.473	205.6296	0.004773885
486	39.25	170.123	171.83393	0.0058781
487	39.3	137.347	140.79015	0.007280829
488	39.35	120.122	115.32607	0.00832487
489	39.4	100.531	96.39374	0.00994718
490	39.45	89.478	83.53176	0.011175932
491	39.5	87.707	75.50727	0.011401599
492	39.55	77.853	70.90151	0.01284472
493	39.6	73.723	68.48849	0.013564288
494	39.65	71.436	67.38654	0.013998544
495	39.7	76.271	67.05117	0.013111143
496	39.75	76.669	67.19956	0.013043081
497	39.8	76.213	67.73461	0.013121121
498	39.85	78.193	68.70323	0.012788869
499	39.9	79.661	70.29927	0.012553194
500	39.95	78.836	72.90786	0.01268456
501	40	83.87	77.17816	0.011923214
502	40.05	87.645	84.09705	0.011409664
503	40.1	98.795	95.01461	0.01012197
504	40.15	105.769	111.55101	0.009454566
505	40.2	123.033	135.31198	0.008127901
506	40.25	145.904	167.38864	0.006853822
507	40.3	184.941	207.73889	0.00540713
508	40.35	236.72	254.7076	0.0042244
509	40.4	297.495	305.009	0.003361401
510	40.45	353.638	354.36605	0.00282775
511	40.5	428.957	398.79481	0.002331236
512	40.55	454.455	436.43048	0.002200438
513	40.6	474.572	469.40495	0.002107162
514	40.65	486.13	503.81696	0.002057063
515	40.7	515.725	546.07189	0.001939018
516	40.75	570.508	597.98915	0.001752824
517	40.8	650.016	654.22331	0.001538424
518	40.85	743.148	702.7674	0.001345627
519	40.9	797.169	728.09174	0.001254439
520	40.95	812.444	716.69088	0.001230854
521	41	738.538	663.9991	0.001354026
522	41.05	609.234	577.99914	0.001641405
523	41.1	453.137	474.96319	0.002206838
524	41.15	330.594	371.64354	0.003024858
525	41.2	240.989	280.40275	0.004149567
526	41.25	184.382	207.78562	0.005423523
527	41.3	140.755	155.0387	0.007104543
528	41.35	102.274	119.72039	0.009777656
529	41.4	92.656	97.66099	0.010792609
530	41.45	88.529	84.5801	0.011295734
531	41.5	76.656	77.00969	0.013045293
532	41.55	65.206	72.56062	0.015336012
533	41.6	64.424	69.78612	0.015522166
534	41.65	60.55	67.88807	0.016515277
535	41.7	57.81	66.46821	0.017298045
536	41.75	58.102	65.33409	0.017211111
537	41.8	60.777	64.39101	0.016453593
538	41.85	60.618	63.58723	0.01649675
539	41.9	58.119	62.89703	0.017206077
540	41.95	59.396	62.30028	0.016836151
541	42	59.429	61.77973	0.016826802
542	42.05	56.297	61.32531	0.017762936
543	42.1	53.575	60.92403	0.018665422
544	42.15	57.823	60.56563	0.017294156
545	42.2	60.282	60.24799	0.0165887
546	42.25	56.192	59.96429	0.017796128
547	42.3	58.653	59.70777	0.017049426
548	42.35	58.151	59.47692	0.017196609
549	42.4	57.612	59.26862	0.017357495
550	42.45	58.615	59.0802	0.017060479
551	42.5	57.34	58.90939	0.017439833
552	42.55	58.67	58.75427	0.017044486
553	42.6	58.41	58.61317	0.017120356
554	42.65	57.377	58.48466	0.017428586
555	42.7	58.718	58.36751	0.017030553
556	42.75	58.783	58.26064	0.017011721
557	42.8	60.192	58.16311	0.016613503
558	42.85	57.404	58.0741	0.017420389
559	42.9	60.63	57.99291	0.016493485
560	42.95	55.147	57.9189	0.018133353
561	43	59.656	57.85152	0.016762773
562	43.05	56.968	57.7903	0.017553714
563	43.1	58.498	57.7348	0.017094602
564	43.15	54.993	57.68465	0.018184133
565	43.2	59.071	57.63952	0.016928781
566	43.25	60.643	57.59912	0.016489949
567	43.3	57.743	57.5632	0.017318116
568	43.35	56.742	57.53153	0.01762363
569	43.4	56.966	57.50393	0.017554331
570	43.45	60.868	57.48022	0.016428994
571	43.5	62.054	57.46026	0.016114997
572	43.55	60.273	57.44393	0.016591177
573	43.6	59.982	57.43112	0.016671668
574	43.65	58.512	57.42176	0.017090511
575	43.7	61.505	57.41578	0.016258841
576	43.75	62.166	57.41312	0.016085963
577	43.8	61.08	57.41375	0.016371971
578	43.85	61.317	57.41766	0.016308691
579	43.9	62.585	57.42484	0.01597827
580	43.95	60.099	57.4353	0.016639212
581	44	60.191	57.44906	0.016613779
582	44.05	61.38	57.46616	0.016291952
583	44.1	63.194	57.48666	0.015824287
584	44.15	63.451	57.51062	0.015760193
585	44.2	64.471	57.53812	0.01551085
586	44.25	62.132	57.56926	0.016094766
587	44.3	62.194	57.60415	0.016078721
588	44.35	59.387	57.64293	0.016838702
589	44.4	64.162	57.68574	0.015585549
590	44.45	55.735	57.73274	0.017942047
591	44.5	61.205	57.78412	0.016338534
592	44.55	62.783	57.8401	0.015927879
593	44.6	57.947	57.90089	0.017257149
594	44.65	53.936	57.96676	0.018540492
595	44.7	60.011	58.038	0.016663612
596	44.75	58.286	58.11491	0.017156779
597	44.8	56.752	58.19785	0.017620524
598	44.85	59.295	58.2872	0.016864828
599	44.9	60.934	58.38338	0.016411199
600	44.95	64.869	58.48687	0.015415684
601	45	59.807	58.59818	0.016720451
602	45.05	61.939	58.7179	0.016144917
603	45.1	63.179	58.84666	0.015828044
604	45.15	62.598	58.98517	0.015974951
605	45.2	63.961	59.13422	0.015634527
606	45.25	62.031	59.29469	0.016120972
607	45.3	56.472	59.46756	0.017707891
608	45.35	63.089	59.65393	0.015850624
609	45.4	61.881	59.85501	0.016160049
610	45.45	56.929	60.07219	0.01756574
611	45.5	61.231	60.30702	0.016331597
612	45.55	62.483	60.56124	0.016004353
613	45.6	60.724	60.83683	0.016467953
614	45.65	59.376	61.13603	0.016841822
615	45.7	61.386	61.46139	0.016290359
616	45.75	58.793	61.81581	0.017008828
617	45.8	58.927	62.20264	0.01697015
618	45.85	60.826	62.62569	0.016440338
619	45.9	61.791	63.08941	0.016183587
620	45.95	68.156	63.59917	0.014672223
621	46	65.335	64.16146	0.015305732
622	46.05	69.497	64.7839	0.01438911
623	46.1	70.556	65.47062	0.014173139
624	46.15	72.205	66.23382	0.013849456
625	46.2	77.147	67.08494	0.012962267
626	46.25	78.812	68.03764	0.012688423
627	46.3	81.516	69.10831	0.01226753
628	46.35	81.169	70.31679	0.012319974
629	46.4	82.715	71.68723	0.012089706
630	46.45	86.807	73.24928	0.011519808
631	46.5	93.772	75.03976	0.010664164
632	46.55	98.711	77.10506	0.010130583
633	46.6	95.6	79.50522	0.010460251
634	46.65	94.443	82.32191	0.010588397
635	46.7	99.022	85.67567	0.010098766
636	46.75	100.043	89.76505	0.009995702
637	46.8	110.178	94.95309	0.009076222
638	46.85	121.207	101.94639	0.008250349
639	46.9	138.883	112.13215	0.007200305
640	46.95	166.131	128.13982	0.006019346
641	47	210.384	154.63634	0.004753213
642	47.05	259.593	199.20138	0.003852184
643	47.1	342.996	272.84302	0.002915486
644	47.15	461.623	389.39247	0.00216627
645	47.2	626.706	562.8904	0.001595645
646	47.25	841.172	802.46894	0.001188818
647	47.3	1131.092	1105.33724	0.000884101
648	47.35	1453.394	1450.10892	0.000688045
649	47.4	1806.828	1793.96859	0.000553456
650	47.45	2070.889	2076.72349	0.000482884
651	47.5	2215.079	2233.53317	0.000451451
652	47.55	2140.844	2218.11324	0.000467105
653	47.6	1909.942	2030.10059	0.000523576
654	47.65	1578.562	1719.96838	0.000633488
655	47.7	1190.307	1360.01084	0.000840119
656	47.75	885.181	1012.88773	0.001129712
657	47.8	640.367	718.61569	0.001561605
658	47.85	470.53	493.9577	0.002125263
659	47.9	356.127	337.37564	0.002807987
660	47.95	279.284	236.51272	0.003580585
661	48	214.665	175.49515	0.004658421
662	48.05	174.888	139.97085	0.005717945
663	48.1	143.711	119.32996	0.00695841
664	48.15	119.298	106.80754	0.00838237
665	48.2	103.811	98.56904	0.009632891
666	48.25	87.827	92.63046	0.01138602
667	48.3	77.673	88.02245	0.012874487
668	48.35	74.169	84.27421	0.013482722
669	48.4	67.803	81.14221	0.01474861
670	48.45	68.85	78.48417	0.014524328
671	48.5	65.388	76.20534	0.015293326
672	48.55	62.391	74.23645	0.016027953
673	48.6	65.776	72.52414	0.015203114
674	48.65	59.489	71.0262	0.01680983
675	48.7	63.868	69.70877	0.015657293
676	48.75	67.08	68.54438	0.014907573
677	48.8	65.459	67.51059	0.015276738
678	48.85	62.105	66.58891	0.016101763
679	48.9	60.774	65.764	0.016454405
680	48.95	62.456	65.02307	0.016011272
681	49	62.019	64.35538	0.016124091
682	49.05	62.241	63.75186	0.01606658
683	49.1	57.533	63.20481	0.017381329
684	49.15	59.814	62.70768	0.016718494
685	49.2	60.943	62.25484	0.016408775
686	49.25	58.295	61.84145	0.01715413
687	49.3	57.971	61.46335	0.017250004
688	49.35	61.696	61.11691	0.016208506
689	49.4	58.789	60.79898	0.017009985
690	49.45	54.868	60.50682	0.01822556
691	49.5	54.81	60.23802	0.018244846
692	49.55	55.731	59.99049	0.017943335
693	49.6	56.292	59.76235	0.017764514
694	49.65	58.614	59.55199	0.01706077
695	49.7	58.27	59.35797	0.01716149
696	49.75	54.141	59.17901	0.018470291
697	49.8	58.446	59.01399	0.017109811
698	49.85	57.21	58.86192	0.017479462
699	49.9	54.754	58.72193	0.018263506
700	49.95	52.799	58.59323	0.018939753
701	50	57.253	58.47516	0.017466334
702	50.05	58.18	58.36711	0.017188037
703	50.1	57.719	58.26858	0.017325317
704	50.15	57.331	58.1791	0.01744257
705	50.2	53.21	58.09831	0.01879346
706	50.25	53.687	58.02588	0.018626483
707	50.3	54.987	57.96154	0.018186117
708	50.35	55.256	57.9051	0.018097582
709	50.4	56.792	57.8564	0.017608114
710	50.45	56.666	57.81535	0.017647266
711	50.5	57.233	57.78191	0.017472437
712	50.55	53.961	57.75609	0.018531903
713	50.6	55.536	57.73798	0.018006338
714	50.65	59.601	57.72771	0.016778242
715	50.7	55.955	57.7255	0.017871504
716	50.75	56.496	57.7316	0.017700368
717	50.8	56.764	57.74638	0.017616799
718	50.85	61.69	57.7703	0.016210083
719	50.9	60.961	57.80393	0.01640393
720	50.95	57.317	57.84795	0.017446831
721	51	61.528	57.90318	0.016252763
722	51.05	62.206	57.97054	0.01607562
723	51.1	58.401	58.05059	0.017122994
724	51.15	55.671	58.14664	0.017962674
725	51.2	53.665	58.26077	0.018634119
726	51.25	57.683	58.39434	0.01733613
727	51.3	61.114	58.55006	0.016362863
728	51.35	58.716	58.7316	0.017031133
729	51.4	58.475	58.94509	0.017101325
730	51.45	60.762	59.19581	0.016457654
731	51.5	56.997	59.49301	0.017544783
732	51.55	53.61	59.8518	0.018653236
733	51.6	54.535	60.29962	0.018336848
734	51.65	56.25	60.88991	0.017777778
735	51.7	59.934	61.72744	0.01668502
736	51.75	63.469	63.00936	0.015755723
737	51.8	62.654	65.07955	0.015960673
738	51.85	64.692	68.47895	0.015457862
739	51.9	69.034	73.95278	0.014485616
740	51.95	75.584	82.35815	0.013230313
741	52	87.04	94.42835	0.011488971
742	52.05	104.483	110.4037	0.009570935
743	52.1	125.214	129.47006	0.007986327
744	52.15	147.336	149.62117	0.006787207
745	52.2	172.141	167.57542	0.005809191
746	52.25	184.254	179.34954	0.005427291
747	52.3	187.373	181.5987	0.005336948
748	52.35	182.657	173.52635	0.005474742
749	52.4	158.228	157.68673	0.006319994
750	52.45	136.238	138.37008	0.007340096
751	52.5	112.184	119.45333	0.008913927
752	52.55	99.207	103.47381	0.010079934
753	52.6	84.55	91.59419	0.011827321
754	52.65	75.824	83.78025	0.013188436
755	52.7	81.121	79.48941	0.012327264
756	52.75	78.016	77.98062	0.012817884
757	52.8	78.564	78.74386	0.012728476
758	52.85	84.753	81.77546	0.011798992
759	52.9	94.916	87.78643	0.010535632
760	52.95	98.511	98.36956	0.010151151
761	53	121.63	116.05836	0.008221656
762	53.05	153.454	144.1044	0.006516611
763	53.1	192.835	185.77109	0.005185781
764	53.15	252.002	243.07865	0.003968222
765	53.2	339.085	315.23107	0.002949113
766	53.25	418.634	397.28338	0.002388721
767	53.3	525.459	479.79445	0.001903098
768	53.35	599.071	550.19862	0.001669251
769	53.4	648.983	596.70602	0.001540872
770	53.45	657.982	614.81665	0.001519798
771	53.5	621.554	611.3515	0.001608871
772	53.55	597.167	598.89475	0.001674573
773	53.6	588.277	585.85112	0.001699879
774	53.65	570.801	571.79287	0.001751924
775	53.7	568.029	549.03735	0.001760473
776	53.75	532.13	508.72475	0.00187924
777	53.8	457.492	448.7526	0.002185831
778	53.85	377.227	376.24047	0.002650924
779	53.9	290.011	302.06532	0.003448145
780	53.95	218.908	235.20039	0.004568129
781	54	170.81	180.81264	0.005854458
782	54.05	133.464	140.38898	0.007492657
783	54.1	111.507	112.64925	0.008968047
784	54.15	89.961	94.82677	0.011115928
785	54.2	80.309	83.86883	0.012451905
786	54.25	75.159	77.20696	0.013305126
787	54.3	73.122	73.03337	0.013675775
788	54.35	67.505	70.23772	0.014813718
789	54.4	67.168	68.20643	0.014888042
790	54.45	58.839	66.62391	0.01699553
791	54.5	61.32	65.33169	0.016307893
792	54.55	62.874	64.24686	0.015904826
793	54.6	57.551	63.32128	0.017375893
794	54.65	57.984	62.5233	0.017246137
795	54.7	57.624	61.82997	0.01735388
796	54.75	55.176	61.22366	0.018123822
797	54.8	55.952	60.69044	0.017872462
798	54.85	57.859	60.21908	0.017283396
799	54.9	54.716	59.80047	0.01827619
800	54.95	55.59	59.42713	0.017988847
801	55	55.127	59.09288	0.018139931
802	55.05	54.734	58.79259	0.018270179
803	55.1	57.757	58.52194	0.017313919
804	55.15	54.707	58.27731	0.018279196
805	55.2	55.729	58.05563	0.017943979
806	55.25	55.89	57.85428	0.017892288
807	55.3	54.729	57.67103	0.018271849
808	55.35	56.018	57.50395	0.017851405
809	55.4	56.466	57.35139	0.017709772
810	55.45	54.966	57.21192	0.018193065
811	55.5	54.683	57.08486	0.018287219
812	55.55	59.417	56.97154	0.0168302
813	55.6	57.857	56.86448	0.017283993
814	55.65	54.802	56.76639	0.018247509
815	55.7	56.885	56.67656	0.017579327
816	55.75	55.941	56.59464	0.017875976
817	55.8	53.636	56.52281	0.018644194
818	55.85	54.559	56.45432	0.018328782
819	55.9	54.232	56.39187	0.018439298
820	55.95	51.656	56.33517	0.019358835
821	56	55.5	56.2839	0.018018018
822	56.05	55.268	56.23777	0.018093653
823	56.1	56.098	56.19655	0.017825947
824	56.15	56.584	56.16208	0.01767284
825	56.2	60.29	56.1421	0.016586499
826	56.25	55.631	56.11449	0.017975589
827	56.3	59.038	56.09113	0.016938243
828	56.35	55.837	56.07193	0.017909272
829	56.4	52.162	56.05681	0.019171044
830	56.45	54.681	56.04575	0.018287888
831	56.5	56.52	56.03875	0.017692852
832	56.55	57.267	56.03717	0.017462064
833	56.6	55.14	56.04309	0.018135655
834	56.65	51.985	56.04838	0.019236318
835	56.7	55.087	56.05786	0.018153103
836	56.75	55.766	56.07163	0.017932073
837	56.8	54.974	56.08978	0.018190417
838	56.85	55.562	56.11236	0.017997912
839	56.9	54.228	56.13865	0.018440658
840	56.95	60.405	56.17099	0.016554921
841	57	56.297	56.21046	0.017762936
842	57.05	53.742	56.25672	0.018607421
843	57.1	53.547	56.3163	0.018675183
844	57.15	53.968	56.37549	0.018529499
845	57.2	53.27	56.44237	0.018772292
846	57.25	54.85	56.5177	0.018231541
847	57.3	58.925	56.60364	0.016970725
848	57.35	54.612	56.71513	0.018310994
849	57.4	56.863	56.82162	0.017586128
850	57.45	54.19	56.94097	0.018453589
851	57.5	57.214	57.0748	0.01747824
852	57.55	58.642	57.22504	0.017052624
853	57.6	57.552	57.394	0.017375591
854	57.65	50.651	57.58445	0.019742947
855	57.7	56.089	57.79971	0.017828808
856	57.75	60.125	58.04385	0.016632017
857	57.8	57.429	58.32186	0.017412805
858	57.85	60.506	58.63989	0.016527287
859	57.9	60.286	59.00574	0.016587599
860	57.95	59.039	59.42944	0.016937956
861	58	59.725	59.92469	0.016743407
862	58.05	64.963	60.5117	0.015393378
863	58.1	66.226	61.22403	0.01509981
864	58.15	56.256	62.12356	0.017775882
865	58.2	65.743	63.33021	0.015210745
866	58.25	65.31	65.07387	0.015311591
867	58.3	64.101	67.76931	0.015600381
868	58.35	72.729	72.09519	0.013749673
869	58.4	78.588	79.03671	0.012724589
870	58.45	90.721	89.7728	0.011022806
871	58.5	98.732	105.39118	0.010128428
872	58.55	114.13	126.37169	0.008761938
873	58.6	145.559	151.97258	0.006870066
874	58.65	173.824	179.7335	0.005752946
875	58.7	204.441	205.39056	0.004891387
876	58.75	227.624	223.69338	0.00439321
877	58.8	236.133	230.725	0.004234902
878	58.85	232.053	227.2162	0.00430936
879	58.9	223.337	219.32408	0.004477538
880	58.95	205.2	215.24657	0.004873294
881	59	216.382	221.52047	0.004621456
882	59.05	244.567	241.18531	0.004088859
883	59.1	273.551	272.98232	0.003655625
884	59.15	310.676	311.16549	0.003218787
885	59.2	362.362	346.35861	0.002759671
886	59.25	397.483	368.35683	0.002515831
887	59.3	402.629	370.71498	0.002483676
888	59.35	384.955	353.13736	0.002597706
889	59.4	342.573	319.27181	0.002919086
890	59.45	292.837	274.78631	0.003414869
891	59.5	230.401	226.93134	0.004340259
892	59.55	186.703	182.45076	0.0053561
893	59.6	135.464	145.46605	0.007382035
894	59.65	108.785	117.31613	0.009192444
895	59.7	97.101	97.42048	0.010298555
896	59.75	80.135	84.20331	0.012478942
897	59.8	72.354	75.8183	0.013820936
898	59.85	70.372	70.61594	0.014210197
899	59.9	66.947	67.3542	0.014937189
900	59.95	64.824	65.2135	0.015426385
901	60	58.976	63.70792	0.01695605
902	60.05	59.767	62.57199	0.016731641
903	60.1	61.454	61.6672	0.016272334
904	60.15	58.299	60.92089	0.017152953
905	60.2	58.192	60.29236	0.017184493
906	60.25	59.42	59.7562	0.01682935
907	60.3	58.063	59.29476	0.017222672
908	60.35	57.685	58.89488	0.017335529
909	60.4	59.892	58.54633	0.016696721
910	60.45	60.234	58.24098	0.016601919
911	60.5	60.315	57.97227	0.016579624
912	60.55	59.216	57.73487	0.016887328
913	60.6	57.798	57.52442	0.017301637
914	60.65	58.479	57.3373	0.017100156
915	60.7	59.723	57.17052	0.016743968
916	60.75	57.769	57.02158	0.017310322
917	60.8	59.425	56.88837	0.016827934
918	60.85	58.344	56.76912	0.017139723
919	60.9	56.01	56.66233	0.017853955
920	60.95	58.164	56.56672	0.017192765
921	61	61.669	56.48122	0.016215603
922	61.05	54.956	56.40489	0.018196375
923	61.1	53.759	56.33696	0.018601536
924	61.15	55.749	56.27676	0.017937541
925	61.2	55.501	56.22372	0.018017693
926	61.25	55.28	56.1774	0.018089725
927	61.3	56.312	56.13738	0.017758204
928	61.35	57.584	56.10338	0.017365935
929	61.4	57.677	56.07549	0.017337934
930	61.45	57.726	56.0632	0.017323217
931	61.5	60.142	56.04611	0.016627315
932	61.55	61.118	56.03446	0.016361792
933	61.6	61.424	56.02829	0.016280281
934	61.65	61.839	56.02768	0.016171025
935	61.7	59.409	56.03281	0.016832466
936	61.75	57.913	56.04396	0.01726728
937	61.8	59.289	56.06563	0.016866535
938	61.85	55.894	56.09077	0.017891008
939	61.9	57.012	56.12248	0.017540167
940	61.95	58.44	56.16236	0.017111567
941	62	63.741	56.21134	0.015688489
942	62.05	62.005	56.27063	0.016127732
943	62.1	62.789	56.3417	0.015926357
944	62.15	63.934	56.42643	0.01564113
945	62.2	58.342	56.52718	0.017140311
946	62.25	59.639	56.64694	0.016767551
947	62.3	59.326	56.78959	0.016856016
948	62.35	63.143	56.96025	0.015837068
949	62.4	57.633	57.16601	0.01735117
950	62.45	56.415	57.41763	0.017725782
951	62.5	60.395	57.73335	0.016557662
952	62.55	60.535	58.14751	0.016519369
953	62.6	64.279	58.72816	0.01555718
954	62.65	65.167	59.60821	0.01534519
955	62.7	64.418	61.03092	0.015523611
956	62.75	67.914	63.39823	0.014724505
957	62.8	71.676	67.28971	0.013951671
958	62.85	72.422	73.40075	0.013807959
959	62.9	79.787	82.35294	0.01253337
960	62.95	96.298	94.37437	0.010384432
961	63	103.853	108.91632	0.009628995
962	63.05	116.28	124.31758	0.008599931
963	63.1	133.876	137.67678	0.007469599
964	63.15	131.09	145.32689	0.007628347
965	63.2	138.704	144.49478	0.007209597
966	63.25	131.412	135.41829	0.007609655
967	63.3	118.405	121.25072	0.008445589
968	63.35	102.132	105.73184	0.009791251
969	63.4	95.05	91.56503	0.010520779
970	63.45	82.939	80.15657	0.012057054
971	63.5	76.161	71.85411	0.01313008
972	63.55	75.897	66.30567	0.013175751
973	63.6	68.878	62.83828	0.014518424
974	63.65	66.589	60.75853	0.015017495
975	63.7	63.091	59.51648	0.015850121
976	63.75	65.398	58.74567	0.015290987
977	63.8	63.757	58.23202	0.015684552
978	63.85	65.464	57.86196	0.015275571
979	63.9	61.598	57.57851	0.016234293
980	63.95	59.703	57.35292	0.016749577
981	64	59.311	57.16959	0.016860279
982	64.05	60.193	57.01901	0.016613227
983	64.1	57.023	56.89466	0.017536783
984	64.15	60.263	56.79174	0.01659393
985	64.2	54.842	56.70656	0.0182342
986	64.25	57.086	56.63623	0.01751743
987	64.3	58.465	56.57847	0.01710425
988	64.35	57.582	56.53144	0.017366538
989	64.4	59.818	56.49365	0.016717376
990	64.45	61.104	56.46389	0.016365541
991	64.5	59.964	56.44117	0.016676673
992	64.55	57.664	56.42468	0.017341842
993	64.6	54.863	56.41375	0.018227221
994	64.65	61.756	56.40782	0.016192759
995	64.7	59.739	56.40642	0.016739483
996	64.75	60.488	56.40916	0.016532205
997	64.8	55.988	56.41571	0.01786097
998	64.85	59.166	56.425	0.016901599
999	64.9	59.798	56.43569	0.016722967
1000	64.95	60.608	56.44654	0.016499472
1001	65	61.152	56.45883	0.016352695
1002	65.05	60.407	56.46002	0.016554373
1003	65.1	58.753	56.46677	0.017020407
1004	65.15	61.307	56.49511	0.016311351
1005	65.2	58.816	56.52606	0.017002176
1006	65.25	58.323	56.5596	0.017145894
1007	65.3	58.064	56.5957	0.017222375
1008	65.35	58.371	56.63434	0.017131795
1009	65.4	58.349	56.67554	0.017138254
1010	65.45	59.043	56.71931	0.016936809
1011	65.5	60.327	56.77456	0.016576326
1012	65.55	57.267	56.83012	0.017462064
1013	65.6	57.022	56.88191	0.017537091
1014	65.65	56.157	56.93645	0.017807219
1015	65.7	58.16	56.99382	0.017193948
1016	65.75	63.698	57.05411	0.01569908
1017	65.8	61.698	57.11741	0.016207981
1018	65.85	62.408	57.18385	0.016023587
1019	65.9	52.425	57.25353	0.019074869
1020	65.95	58.456	57.33178	0.017106884
1021	66	59.166	57.42111	0.016901599
1022	66.05	58.852	57.50153	0.016991776
1023	66.1	62.084	57.58583	0.01610721
1024	66.15	57.938	57.67423	0.017259829
1025	66.2	57.042	57.77313	0.017530942
1026	66.25	62.002	57.87039	0.016128512
1027	66.3	59.184	57.97245	0.016896459
1028	66.35	59.715	58.07958	0.016746211
1029	66.4	62.947	58.1921	0.015886381
1030	66.45	61.764	58.31034	0.016190661
1031	66.5	59.703	58.43466	0.016749577
1032	66.55	59.717	58.56546	0.01674565
1033	66.6	61.609	58.70319	0.016231395
1034	66.65	59.643	58.84831	0.016766427
1035	66.7	59.806	59.00136	0.01672073
1036	66.75	58.936	59.1629	0.016967558
1037	66.8	63.77	59.33358	0.015681355
1038	66.85	64.009	59.51407	0.015622803
1039	66.9	58.612	59.70517	0.017061353
1040	66.95	61.974	59.9077	0.016135799
1041	67	61.737	60.12261	0.016197742
1042	67.05	65.618	60.35093	0.015239721
1043	67.1	65.658	60.59383	0.015230437
1044	67.15	61.85	60.85259	0.016168149
1045	67.2	57.041	61.12865	0.017531249
1046	67.25	68.675	61.42361	0.01456134
1047	67.3	63.579	61.73928	0.015728464
1048	67.35	60.628	62.07769	0.016494029
1049	67.4	63.771	62.44112	0.015681109
1050	67.45	60.285	62.83218	0.016587874
1051	67.5	59.379	63.25379	0.016840971
1052	67.55	59.413	63.70932	0.016831333
1053	67.6	62.596	64.2026	0.015975462
1054	67.65	61.72	64.73803	0.016202203
1055	67.7	68.049	65.32067	0.014695293
1056	67.75	67.141	65.95641	0.014894029
1057	67.8	70.236	66.65206	0.014237713
1058	67.85	70.467	67.41561	0.01419104
1059	67.9	69.689	68.2564	0.014349467
1060	67.95	67.221	69.18551	0.014876304
1061	68	72.123	70.21607	0.013865203
1062	68.05	69.366	71.36378	0.014416285
1063	68.1	69.16	72.64754	0.014459225
1064	68.15	78.499	74.09025	0.012739016
1065	68.2	75.682	75.71991	0.013213181
1066	68.25	77.141	77.571	0.012963275
1067	68.3	75.973	79.68643	0.013162571
1068	68.35	77.614	82.12022	0.012884273
1069	68.4	86.326	84.9415	0.011583996
1070	68.45	92.381	88.24143	0.010824737
1071	68.5	96.894	92.14684	0.010320556
1072	68.55	94.245	96.85074	0.010610642
1073	68.6	95.814	102.6821	0.010436888
1074	68.65	104.49	110.25698	0.009570294
1075	68.7	112.98	120.77092	0.008851124
1076	68.75	137.448	136.47933	0.007275479
1077	68.8	159.719	161.31728	0.006260996
1078	68.85	192.006	201.39372	0.005208171
1079	68.9	249.801	264.81446	0.004003187
1080	68.95	336.957	360.1619	0.002967738
1081	69	472.736	493.27906	0.002115346
1082	69.05	620.714	662.76719	0.001611048
1083	69.1	821.448	855.18996	0.001217363
1084	69.15	1008.555	1041.07378	0.000991518
1085	69.2	1142.374	1175.37014	0.00087537
1086	69.25	1193.201	1213.43253	0.000838082
1087	69.3	1175.636	1144.39583	0.000850603
1088	69.35	1055.62	1004.61548	0.000947311
1089	69.4	885.636	849.77418	0.001129132
1090	69.45	767.931	726.37884	0.0013022
1091	69.5	704.288	664.18737	0.001419874
1092	69.55	705.343	676.38436	0.00141775
1093	69.6	773.542	759.94534	0.001292755
1094	69.65	927.416	895.66254	0.001078265
1095	69.7	1104.039	1047.94279	0.000905765
1096	69.75	1240.31	1166.39708	0.00080625
1097	69.8	1288.067	1199.17387	0.000776357
1098	69.85	1221.548	1124.24896	0.000818633
1099	69.9	1049.806	967.14834	0.000952557
1100	69.95	812.643	776.21493	0.001230553
1101	70	595.373	591.58728	0.001679619
1102	70.05	414.795	436.27308	0.002410829
1103	70.1	296.671	318.64384	0.003370737
1104	70.15	226.863	236.90381	0.004407947
1105	70.2	183.712	183.79644	0.005443303
1106	70.25	145.473	150.72844	0.006874128
1107	70.3	123.83	130.20895	0.008075587
1108	70.35	108.701	117.03297	0.009199547
1109	70.4	92.767	107.99158	0.010779695
1110	70.45	84.625	101.31382	0.011816839
1111	70.5	81.714	96.0808	0.012237805
1112	70.55	74.449	91.81797	0.013432014
1113	70.6	68.662	88.26414	0.014564097
1114	70.65	69.988	85.25889	0.014288164
1115	70.7	72.309	82.69196	0.013829537
1116	70.75	71.952	80.48036	0.013898154
1117	70.8	67.383	78.5684	0.014840538
1118	70.85	63.445	76.91015	0.015761683
1119	70.9	63.924	75.46162	0.015643577
1120	70.95	65.386	74.19114	0.015293794
1121	71	60.141	73.07285	0.016627592
1122	71.05	63.465	72.0831	0.015756716
1123	71.1	67.262	71.21013	0.014867236
1124	71.15	62.06	70.4439	0.016113439
1125	71.2	64.993	69.76773	0.015386272
1126	71.25	66.67	69.17201	0.01499925
1127	71.3	62.876	68.64878	0.01590432
1128	71.35	65.349	68.19149	0.015302453
1129	71.4	65.78	67.79475	0.015202189
1130	71.45	65.441	67.45422	0.01528094
1131	71.5	67.971	67.16652	0.014712157
1132	71.55	66.984	66.92906	0.014928938
1133	71.6	64.258	66.74008	0.015562265
1134	71.65	68.803	66.59858	0.01453425
1135	71.7	67.929	66.50437	0.014721253
1136	71.75	64.628	66.45805	0.01547317
1137	71.8	62.541	66.46113	0.015989511
1138	71.85	62.13	66.51615	0.016095284
1139	71.9	62.266	66.62686	0.016060129
1140	71.95	65.823	66.79849	0.015192258
1141	72	64.105	67.03817	0.015599407
1142	72.05	61.356	67.35571	0.016298325
1143	72.1	65.783	67.76506	0.015201496
1144	72.15	65.747	68.28762	0.015209819
1145	72.2	73.08	68.95944	0.013683634
1146	72.25	70.347	69.84612	0.014215247
1147	72.3	71.996	71.0698	0.013889661
1148	72.35	69.821	72.84993	0.014322339
1149	72.4	74.516	75.54963	0.013419937
1150	72.45	70.693	79.7012	0.014145672
1151	72.5	84.954	85.96803	0.011771076
1152	72.55	93.998	95.00395	0.010638524
1153	72.6	104.928	107.20861	0.009530345
1154	72.65	118.852	122.42408	0.008413826
1155	72.7	135.09	139.61302	0.007402472
1156	72.75	153.827	156.57458	0.006500809
1157	72.8	171.664	170.21089	0.005825333
1158	72.85	171.904	178.33761	0.0058172
1159	72.9	179.522	181.80702	0.005570348
1160	72.95	177.435	183.51199	0.005635867
1161	73	177.142	185.48197	0.005645189
1162	73.05	186.554	187.72135	0.005360378
1163	73.1	189.302	189.41552	0.005282564
1164	73.15	200.579	191.72797	0.004985567
1165	73.2	198.695	198.67838	0.005032839
1166	73.25	204.933	214.69116	0.004879644
1167	73.3	229.317	241.87538	0.004360776
1168	73.35	261.089	278.63503	0.003830112
1169	73.4	311.881	318.81906	0.003206351
1170	73.45	353.364	351.59109	0.002829943
1171	73.5	379.656	364.73339	0.002633963
1172	73.55	361.775	353.31634	0.002764149
1173	73.6	347.503	324.76598	0.002877673
1174	73.65	314.305	292.00181	0.003181623
1175	73.7	279.129	264.86063	0.003582573
1176	73.75	270.231	247.41031	0.003700538
1177	73.8	262.265	238.26252	0.003812937
1178	73.85	259.676	231.83608	0.003850953
1179	73.9	256.413	221.78489	0.003899958
1180	73.95	231.498	206.03242	0.004319692
1181	74	208.467	187.88729	0.004796922
1182	74.05	186.517	172.44786	0.005361442
1183	74.1	172.21	163.92258	0.005806864
1184	74.15	177.762	165.10746	0.005625499
1185	74.2	178.49	177.3846	0.005602555
1186	74.25	189.63	200.66289	0.005273427
1187	74.3	218.379	233.28672	0.004579195
1188	74.35	249.124	271.71268	0.004014065
1189	74.4	282.877	310.66322	0.003535105
1190	74.45	324.434	345.80079	0.003082291
1191	74.5	371.117	377.45267	0.002694568
1192	74.55	419.285	408.43781	0.002385013
1193	74.6	461.819	437.14325	0.00216535
1194	74.65	498.776	454.01439	0.002004908
1195	74.7	505.431	445.90841	0.001978509
1196	74.75	485.604	407.97643	0.002059291
1197	74.8	409.943	349.54106	0.002439364
1198	74.85	325.186	285.3213	0.003075163
1199	74.9	245.188	226.30446	0.004078503
1200	74.95	185.924	178.07904	0.005378542
1201	75	146.336	142.12219	0.006833588
1202	75.05	118.477	117.25932	0.008440457
1203	75.1	98.79	101.01291	0.010122482
1204	75.15	90.533	90.70683	0.011045696
1205	75.2	87.547	84.13067	0.011422436
1206	75.25	78.208	79.75319	0.012786416
1207	75.3	71.222	76.64329	0.014040605
1208	75.35	68.343	74.28483	0.014632076
1209	75.4	65.445	72.40491	0.015280006
1210	75.45	72.167	70.85746	0.013856749
1211	75.5	69.097	69.55838	0.014472408
1212	75.55	65.33	68.45384	0.015306903
1213	75.6	65.572	67.50593	0.015250412
1214	75.65	68.682	66.6863	0.014559856
1215	75.7	66.228	65.97298	0.015099354
1216	75.75	67.216	65.34862	0.01487741
1217	75.8	62.491	64.79932	0.016002304
1218	75.85	62.453	64.31389	0.016012041
1219	75.9	65.716	63.88296	0.015216994
1220	75.95	63.918	63.4987	0.015645045
1221	76	64.206	63.15361	0.015574868
1222	76.05	66.776	62.84422	0.01497544
1223	76.1	63.619	62.56906	0.015718575
1224	76.15	66.711	62.32175	0.014990032
1225	76.2	64.983	62.09919	0.01538864
1226	76.25	63.136	61.89875	0.015838824
1227	76.3	65.41	61.71819	0.015288182
1228	76.35	69.924	61.55534	0.014301241
1229	76.4	64.245	61.40811	0.015565414
1230	76.45	63.418	61.27365	0.015768394
1231	76.5	66.022	61.15158	0.015146466
1232	76.55	65.383	61.04604	0.015294496
1233	76.6	66.145	60.95101	0.015118301
1234	76.65	67.532	60.86617	0.014807795
1235	76.7	61.612	60.79436	0.016230604
1236	76.75	64.462	60.73237	0.015513015
1237	76.8	72.93	60.67976	0.013711778
1238	76.85	65.636	60.63617	0.015235541
1239	76.9	68.384	60.60133	0.014623304
1240	76.95	64.96	60.57504	0.015394089
1241	77	62.938	60.5572	0.015888652
1242	77.05	63.344	60.54775	0.015786815
1243	77.1	62.761	60.56252	0.015933462
1244	77.15	61.458	60.57013	0.016271275
1245	77.2	59.884	60.58649	0.016698951
1246	77.25	64.996	60.61187	0.015385562
1247	77.3	63.831	60.64666	0.015666369
1248	77.35	62.262	60.69136	0.016061161
1249	77.4	61.909	60.74657	0.01615274
1250	77.45	64.063	60.81306	0.015609634
1251	77.5	59.096	60.89173	0.016921619
1252	77.55	63.042	60.99261	0.015862441
1253	77.6	60.994	61.1	0.016395055
1254	77.65	62.069	61.22282	0.016111102
1255	77.7	64.881	61.36375	0.015412833
1256	77.75	66.61	61.5251	0.015012761
1257	77.8	64.849	61.70964	0.015420438
1258	77.85	61.802	61.93237	0.016180706
1259	77.9	67.415	62.17424	0.014833494
1260	77.95	65.728	62.45807	0.015214216
1261	78	63.724	62.77757	0.015692675
1262	78.05	68.875	63.14673	0.014519056
1263	78.1	66.322	63.57529	0.015077953
1264	78.15	64.765	64.07563	0.015440439
1265	78.2	70.164	64.66381	0.014252323
1266	78.25	68.979	65.36135	0.014497166
1267	78.3	71.959	66.19889	0.013896802
1268	78.35	77.885	67.22411	0.012839443
1269	78.4	74.897	68.5191	0.01335167
1270	78.45	76.013	70.23537	0.013155644
1271	78.5	78.707	72.65573	0.01270535
1272	78.55	85.779	76.28458	0.011657865
1273	78.6	86.326	81.94322	0.011583996
1274	78.65	98.5	90.80657	0.010152284
1275	78.7	118.542	104.28249	0.008435829
1276	78.75	128.395	123.64876	0.007788465
1277	78.8	156.125	149.44839	0.006405124
1278	78.85	176.123	180.73406	0.00567785
1279	78.9	210.632	214.21473	0.004747617
1280	78.95	225.713	243.46173	0.004430405
1281	79	235.204	259.8079	0.004251628
1282	79.05	237.858	257.79228	0.004204189
1283	79.1	233.421	240.90256	0.004284105
1284	79.15	216.494	218.50411	0.004619066
1285	79.2	200.091	198.75187	0.004997726
1286	79.25	190.864	185.75397	0.005239333
1287	79.3	181.608	179.68807	0.005506365
1288	79.35	172.22	177.34208	0.005806527
1289	79.4	167.668	173.38996	0.005964167
1290	79.45	158.614	163.70638	0.006304614
1291	79.5	148.165	148.48016	0.006749232
1292	79.55	130.901	130.9276	0.007639361
1293	79.6	109.737	114.1401	0.009112697
1294	79.65	103.056	99.90645	0.009703462
1295	79.7	91.993	88.88205	0.010870392
1296	79.75	86.511	80.94869	0.011559224
1297	79.8	74.9	75.55116	0.013351135
1298	79.85	74.274	71.99817	0.013463662
1299	79.9	73.739	69.65874	0.013561345
1300	79.95	70.022	68.07145	0.014281226
1301	80	70.007	66.93679	0.014284286
1302	80.05	68.252	66.07964	0.014651585
1303	80.1	69.18	65.40318	0.014455045
1304	80.15	66.781	64.85403	0.014974319
1305	80.2	71.262	64.40105	0.014032724
1306	80.25	68.384	64.02423	0.014623304
1307	80.3	68.882	63.7093	0.014517581
1308	80.35	66.019	63.44687	0.015147155
1309	80.4	64.679	63.23532	0.015460969
1310	80.45	62.287	63.06219	0.016054714
1311	80.5	68.591	62.91339	0.014579172
1312	80.55	67.108	62.79284	0.014901353
1313	80.6	69.252	62.69745	0.014440016
1314	80.65	69.64	62.62462	0.014359563
1315	80.7	67.859	62.57227	0.014736439
1316	80.75	64.1	62.53874	0.015600624
1317	80.8	65.758	62.52273	0.015207275
1318	80.85	58.782	62.52324	0.01701201
1319	80.9	58.561	62.53955	0.017076211
1320	80.95	61.944	62.57115	0.016143614
1321	81	65.743	62.61777	0.015210745
1322	81.05	65.639	62.6793	0.015234845
1323	81.1	60.444	62.75586	0.016544239
1324	81.15	66.304	62.84773	0.015082046
1325	81.2	62.753	62.95541	0.015935493
1326	81.25	67.08	63.07956	0.014907573
1327	81.3	65.473	63.22111	0.015273472
1328	81.35	66.192	63.38116	0.015107566
1329	81.4	65.15	63.56113	0.015349194
1330	81.45	68.562	63.76271	0.014585339
1331	81.5	67.707	63.98795	0.014769522
1332	81.55	68.124	64.23929	0.014679115
1333	81.6	62.384	64.51968	0.016029751
1334	81.65	64.602	64.83263	0.015479397
1335	81.7	67.602	65.18237	0.014792462
1336	81.75	64.723	65.57399	0.015450458
1337	81.8	67.524	66.01366	0.014809549
1338	81.85	69.714	66.50889	0.014344321
1339	81.9	66.716	67.06891	0.014988908
1340	81.95	66.035	67.70514	0.015143485
1341	82	69.026	68.43183	0.014487295
1342	82.05	67.675	69.26706	0.014776505
1343	82.1	68.125	70.23421	0.014678899
1344	82.15	69.377	71.36475	0.014413999
1345	82.2	70.359	72.70383	0.014212823
1346	82.25	73.81	74.3224	0.0135483
1347	82.3	75.635	76.34257	0.013221392
1348	82.35	79.667	78.98609	0.012552249
1349	82.4	78.904	82.65429	0.012673629
1350	82.45	80.78	88.03411	0.012379302
1351	82.5	87.467	96.19186	0.011432883
1352	82.55	102.365	108.57148	0.009768964
1353	82.6	120.704	126.7886	0.00828473
1354	82.65	143.926	152.14878	0.006948015
1355	82.7	177.863	184.91769	0.005622305
1356	82.75	221.994	223.41864	0.004504626
1357	82.8	265.141	262.93406	0.003771578
1358	82.85	310.195	294.79572	0.003223779
1359	82.9	331.931	308.45576	0.003012674
1360	82.95	325.705	299.29471	0.003070263
1361	83	311.339	273.88516	0.003211933
1362	83.05	271.743	244.16095	0.003679948
1363	83.1	247.737	220.09666	0.004036539
1364	83.15	240.411	207.97752	0.004159543
1365	83.2	234.558	210.96255	0.004263338
1366	83.25	243.284	229.42376	0.004110422
1367	83.3	266.877	260.87612	0.003747045
1368	83.35	290.039	299.53231	0.003447812
1369	83.4	325.319	335.53809	0.003073906
1370	83.45	337.527	356.01982	0.002962726
1371	83.5	344.86	352.23332	0.002899727
1372	83.55	328.024	327.95729	0.003048557
1373	83.6	312.276	296.24148	0.003202295
1374	83.65	289.338	269.88474	0.003456165
1375	83.7	279.093	257.37563	0.003583035
1376	83.75	292.246	262.91337	0.003421775
1377	83.8	314.411	286.74212	0.00318055
1378	83.85	342.857	325.0363	0.002916668
1379	83.9	362.998	369.29451	0.002754836
1380	83.95	379.488	406.04746	0.002635129
1381	84	408.05	421.09791	0.00245068
1382	84.05	400.638	409.92147	0.002496019
1383	84.1	378.624	381.10173	0.002641143
1384	84.15	346.002	346.19816	0.002890157
1385	84.2	318.204	311.16879	0.003142638
1386	84.25	279.105	276.08725	0.003582881
1387	84.3	250.605	239.92376	0.003990343
1388	84.35	213.085	204.34142	0.004692963
1389	84.4	187.186	172.34893	0.00534228
1390	84.45	161.398	145.7862	0.006195864
1391	84.5	144.96	125.01464	0.006898455
1392	84.55	126.603	109.53559	0.007898707
1393	84.6	110.34	98.44585	0.009062897
1394	84.65	99.037	90.70898	0.010097236
1395	84.7	89.049	85.34953	0.011229772
1396	84.75	88.072	81.57598	0.011354346
1397	84.8	75.585	78.82154	0.013230138
1398	84.85	75.514	76.71848	0.013242578
1399	84.9	69.724	75.04386	0.014342264
1400	84.95	68.8	73.66828	0.014534884
1401	85	69.946	72.51484	0.014296743
1402	85.05	70.114	71.53475	0.014262487
1403	85.1	68.241	70.69485	0.014653947
1404	85.15	68.207	69.9708	0.014661252
1405	85.2	65.317	69.34394	0.01530995
1406	85.25	66.042	68.79954	0.015141879
1407	85.3	72.209	68.32576	0.013848689
1408	85.35	67.146	67.91303	0.01489292
1409	85.4	66.439	67.55352	0.015051401
1410	85.45	63.121	67.24169	0.015842588
1411	85.5	64.763	66.97199	0.015440915
1412	85.55	66.733	66.73849	0.01498509
1413	85.6	64.075	66.53818	0.015606711
1414	85.65	64.089	66.36818	0.015603302
1415	85.7	63.611	66.22604	0.015720551
1416	85.75	62.921	66.10977	0.015892945
1417	85.8	67.015	66.01771	0.014922032
1418	85.85	62.203	65.94858	0.016076395
1419	85.9	62.638	65.90138	0.01596475
1420	85.95	63.831	65.87539	0.015666369
1421	86	66.688	65.87013	0.014995202
1422	86.05	63.685	65.88537	0.015702285
1423	86.1	62.936	65.9211	0.015889157
1424	86.15	63.587	65.9776	0.015726485
1425	86.2	66.582	66.05663	0.015019074
1426	86.25	65.952	66.15942	0.015162542
1427	86.3	66.595	66.283	0.015016142
1428	86.35	66.003	66.43036	0.015150826
1429	86.4	60.813	66.6007	0.016443852
1430	86.45	62.992	66.77898	0.015875032
1431	86.5	68.194	66.98496	0.014664047
1432	86.55	66.822	67.25226	0.014965131
1433	86.6	66.423	67.55767	0.015055026
1434	86.65	66.82	67.91295	0.014965579
1435	86.7	61.69	68.31296	0.016210083
1436	86.75	67.093	68.76638	0.014904685
1437	86.8	65.625	69.28404	0.015238095
1438	86.85	68.682	69.87734	0.014559856
1439	86.9	69.886	70.56	0.014309018
1440	86.95	68.273	71.36229	0.014647079
1441	87	70.6	72.27478	0.014164306
1442	87.05	72.15	73.31017	0.013860014
1443	87.1	70.523	74.59227	0.014179771
1444	87.15	63.056	76.14452	0.015858919
1445	87.2	70.383	78.08076	0.014207976
1446	87.25	66.535	80.60294	0.015029684
1447	87.3	75.74	84.06945	0.013203063
1448	87.35	78.033	89.08593	0.012815091
1449	87.4	83.121	96.58882	0.012030654
1450	87.45	92.583	107.85649	0.010801119
1451	87.5	110.291	124.36084	0.009066923
1452	87.55	134.732	147.38846	0.007422142
1453	87.6	179.045	177.4439	0.005585188
1454	87.65	232.854	213.47645	0.004294536
1455	87.7	295.159	251.86293	0.003388004
1456	87.75	330.574	285.24807	0.003025041
1457	87.8	352.558	303.19794	0.002836413
1458	87.85	336.035	298.3515	0.00297588
1459	87.9	279.119	273.56831	0.003582701
1460	87.95	226.918	238.962	0.004406878
1461	88	184.227	203.81571	0.005428086
1462	88.05	165.097	173.53383	0.006057045
1463	88.1	138.552	150.37718	0.007217507
1464	88.15	134.372	134.63241	0.007442027
1465	88.2	132.029	125.5282	0.007574094
1466	88.25	129.514	121.99664	0.007721173
1467	88.3	135.465	123.29757	0.007381981
1468	88.35	133.288	129.48427	0.007502551
1469	88.4	140.511	141.72056	0.007116881
1470	88.45	165.735	162.43053	0.006033729
1471	88.5	181.044	195.16046	0.005523519
1472	88.55	242.309	243.95694	0.004126962
1473	88.6	303.718	312.12749	0.003292528
1474	88.65	413.052	400.43344	0.002421003
1475	88.7	550.808	504.8017	0.001815515
1476	88.75	696.953	613.33656	0.001434817
1477	88.8	812.076	703.24585	0.001231412
1478	88.85	875.67	744.39794	0.001141983
1479	88.9	827.153	718.55593	0.001208966
1480	88.95	709.346	637.21438	0.001409749
1481	89	555.123	529.90112	0.001801403
1482	89.05	406.514	422.11227	0.00245994
1483	89.1	294.663	328.21268	0.003393707
1484	89.15	211.225	253.88121	0.004734288
1485	89.2	166.845	199.27988	0.005993587
1486	89.25	136.502	161.45815	0.0073259
1487	89.3	113.846	136.27794	0.008783796
1488	89.35	103.058	119.76108	0.009703274
1489	89.4	97.214	108.75397	0.010286584
1490	89.45	94.085	101.10848	0.010628687
1491	89.5	77.263	95.50611	0.012942806
1492	89.55	75.44	91.18897	0.013255567
1493	89.6	75.995	87.7329	0.01315876
1494	89.65	69.716	84.89859	0.01434391
1495	89.7	68.258	82.53261	0.014650297
1496	89.75	74.72	80.53507	0.013383298
1497	89.8	67.129	78.8356	0.014896691
1498	89.85	62.115	77.38565	0.016099171
1499	89.9	70.672	76.13569	0.014149875
1500	89.95	69.826	75.0546	0.014321313
1501	90	64.59	74.11795	0.015482273
1502	90.05	75.823	73.30316	0.01318861
1503	90.1	67.781	72.59597	0.014753397
1504	90.15	73.077	71.97884	0.013684196
1505	90.2	65.158	71.44219	0.01534731
1506	90.25	60.937	70.97791	0.016410391
1507	90.3	67.003	70.58468	0.014924705
1508	90.35	67.996	70.24169	0.014706747
1509	90.4	70.235	69.95591	0.014237916
1510	90.45	70.379	69.71306	0.014208784
1511	90.5	68.599	69.51756	0.014577472
1512	90.55	70.042	69.36277	0.014277148
1513	90.6	63.009	69.24502	0.015870749
1514	90.65	64.563	69.16523	0.015488747
1515	90.7	67.217	69.12538	0.014877189
1516	90.75	68.551	69.12317	0.014587679
1517	90.8	67.502	69.15854	0.014814376
1518	90.85	65.828	69.22576	0.015191104
1519	90.9	69.574	69.34897	0.014373185
1520	90.95	74.257	69.51929	0.013466744
1521	91	72.344	69.74141	0.013822846
1522	91.05	66.719	70.02121	0.014988234
1523	91.1	73.285	70.39273	0.013645357
1524	91.15	68.65	70.83691	0.014566642
1525	91.2	74.023	71.35164	0.013509315
1526	91.25	74.175	71.96349	0.013481631
1527	91.3	72.264	72.69942	0.013838149
1528	91.35	74.98	73.58672	0.01333689
1529	91.4	76.418	74.66946	0.013085922
1530	91.45	75.572	76.01514	0.013232414
1531	91.5	81.061	77.73767	0.012336389
1532	91.55	79.124	80.03475	0.01263839
1533	91.6	91.439	83.24342	0.010936253
1534	91.65	98.085	87.90523	0.010195239
1535	91.7	107.724	94.81321	0.009282982
1536	91.75	116.589	104.98953	0.008577138
1537	91.8	128.528	119.53991	0.007780406
1538	91.85	147.678	139.37148	0.006771489
1539	91.9	169.625	164.71542	0.005895357
1540	91.95	186.337	194.57091	0.005366621
1541	92	211.477	225.89427	0.004728647
1542	92.05	229.355	252.73227	0.004360053
1543	92.1	227.582	267.07044	0.004394021
1544	92.15	224.604	263.87963	0.00445228
1545	92.2	220.149	246.0787	0.004542378
1546	92.25	216.394	221.82175	0.0046212
1547	92.3	191.893	198.37527	0.005211238
1548	92.35	187.754	179.82962	0.005326118
1549	92.4	178.115	167.57213	0.00561435
1550	92.45	173.341	161.07768	0.005768976
1551	92.5	170.4	158.82707	0.005868545
1552	92.55	170.059	159.77314	0.005880312
1553	92.6	180.429	164.27247	0.005542346
1554	92.65	183.062	173.23682	0.00546263
1555	92.7	202.303	186.67421	0.00494308
1556	92.75	214.142	202.8202	0.004669799
1557	92.8	220.088	217.55377	0.004543637
1558	92.85	225.31	224.80325	0.004438329
1559	92.9	219.181	219.87355	0.004562439
1560	92.95	197.122	203.59689	0.005073
1561	93	181.416	181.30019	0.005512193
1562	93.05	156.408	158.36889	0.006393535
1563	93.1	136.215	138.15659	0.007341335
1564	93.15	128.464	122.24644	0.007784282
1565	93.2	111.332	111.13251	0.008982143
1566	93.25	105.496	104.72105	0.009479032
1567	93.3	104.603	102.67467	0.009559955
1568	93.35	108.537	104.61097	0.009213448
1569	93.4	112.319	110.13429	0.008903213
1570	93.45	112.945	118.71129	0.008853867
1571	93.5	120.327	129.41549	0.008310687
1572	93.55	129.431	140.54616	0.007726124
1573	93.6	130.1	149.29548	0.007686395
1574	93.65	131.216	152.31487	0.007621022
1575	93.7	122.178	147.90611	0.00818478
1576	93.75	117.106	137.60399	0.008539272
1577	93.8	112.849	124.69496	0.008861399
1578	93.85	102.489	111.88448	0.009757145
1579	93.9	88.799	100.67512	0.011261388
1580	93.95	84.115	91.66122	0.011888486
1581	94	79.395	84.8685	0.012595252
1582	94.05	82.673	80.00024	0.012095847
1583	94.1	75.86	76.62476	0.013182178
1584	94.15	71.357	74.31098	0.014014042
1585	94.2	70.058	72.70464	0.014273887
1586	94.25	67.846	71.55153	0.014739262
1587	94.3	69.001	70.6867	0.014492544
1588	94.35	64.835	70.01039	0.015423768
1589	94.4	66.728	69.46425	0.014986213
1590	94.45	68.564	69.01413	0.014584913
1591	94.5	68.268	68.63835	0.014648151
1592	94.55	67.266	68.32267	0.014866352
1593	94.6	65.857	68.05693	0.015184415
1594	94.65	67.419	67.83346	0.014832614
1595	94.7	70.484	67.64628	0.014187617
1596	94.75	67.676	67.4907	0.014776287
1597	94.8	67.735	67.36294	0.014763416
1598	94.85	66.74	67.26	0.014983518
1599	94.9	65.305	67.17948	0.015312763
1600	94.95	68.936	67.11944	0.014506209
1601	95	71.308	67.07836	0.014023672
1602	95.05	68.685	67.05505	0.01455922
1603	95.1	69.725	67.04863	0.014342058
1604	95.15	72.124	67.05847	0.01386501
1605	95.2	71.1	67.08411	0.014064698
1606	95.25	67.883	67.12535	0.014731229
1607	95.3	69.138	67.18217	0.014463826
1608	95.35	69.51	67.25473	0.014386419
1609	95.4	69.01	67.3434	0.014490654
1610	95.45	72.535	67.44872	0.013786448
1611	95.5	71.582	67.57143	0.013969992
1612	95.55	66.99	67.71251	0.014927601
1613	95.6	65.39	67.87316	0.015292858
1614	95.65	67.899	68.05483	0.014727757
1615	95.7	68.545	68.2593	0.014588956
1616	95.75	68.863	68.48869	0.014521586
1617	95.8	69.124	68.74553	0.014466755
1618	95.85	66.177	69.03283	0.01511099
1619	95.9	62.533	69.35417	0.015991556
1620	95.95	69.342	69.71384	0.014421274
1621	96	71.618	70.11695	0.01396297
1622	96.05	70.222	70.56967	0.014240551
1623	96.1	69.602	71.07946	0.014367403
1624	96.15	65.127	71.65537	0.015354615
1625	96.2	64.572	72.30852	0.015486589
1626	96.25	70.741	73.05263	0.014136074
1627	96.3	73.317	73.90489	0.013639402
1628	96.35	74.392	74.88721	0.013442306
1629	96.4	70.947	76.02851	0.014095029
1630	96.45	78.356	77.36879	0.012762265
1631	96.5	78.385	78.96718	0.012757543
1632	96.55	78.135	80.91701	0.012798362
1633	96.6	80.228	83.36782	0.012464476
1634	96.65	85.188	86.58242	0.011738743
1635	96.7	94.351	90.98599	0.010598722
1636	96.75	100.874	97.21314	0.009913357
1637	96.8	103.815	106.15717	0.009632519
1638	96.85	124.692	118.92355	0.008019761
1639	96.9	149.4	136.66999	0.00669344
1640	96.95	162.773	160.30645	0.006143525
1641	97	201.118	190.06264	0.004972205
1642	97.05	240.191	224.90429	0.004163353
1643	97.1	268.185	261.72189	0.003728769
1644	97.15	303.77	294.34125	0.003291964
1645	97.2	311.378	313.98877	0.003211531
1646	97.25	295.081	313.80728	0.0033889
1647	97.3	276.097	294.81646	0.003621915
1648	97.35	230.957	265.11129	0.00432981
1649	97.4	210.999	233.60993	0.004739359
1650	97.45	185.847	206.437	0.00538077
1651	97.5	186.416	186.9507	0.005364346
1652	97.55	179.435	176.65092	0.005573049
1653	97.6	172.986	175.79799	0.005780815
1654	97.65	187.957	183.73581	0.005320366
1655	97.7	203.599	199.00594	0.004911615
1656	97.75	213.832	219.20095	0.004676569
1657	97.8	241.307	240.57154	0.004144099
1658	97.85	241.218	258.13492	0.004145628
1659	97.9	256.469	267.89137	0.003899107
1660	97.95	248.503	270.35815	0.004024096
1661	98	262.219	270.63147	0.003813606
1662	98.05	264.647	274.47296	0.003778618
1663	98.1	296.288	285.20342	0.003375095
1664	98.15	306.746	302.72755	0.003260026
1665	98.2	332.027	323.25164	0.003011803
1666	98.25	364.203	339.77507	0.002745721
1667	98.3	366.447	345.07782	0.002728908
1668	98.35	355.366	335.88469	0.002814
1669	98.4	323.01	313.42049	0.003095879
1670	98.45	287.314	281.35144	0.003480513
1671	98.5	248.098	244.75473	0.004030665
1672	98.55	207.084	208.81467	0.004828958
1673	98.6	171.847	177.06174	0.00581913
1674	98.65	141.985	151.03817	0.007042997
1675	98.7	127.371	130.85855	0.007851081
1676	98.75	101.128	115.84768	0.009888458
1677	98.8	92.983	105.00068	0.010754654
1678	98.85	90.547	97.27575	0.011043988
1679	98.9	81.614	91.76107	0.0122528
1680	98.95	82.217	87.75262	0.012162935
1681	99	72.439	84.75022	0.013804718
1682	99.05	71.442	82.42184	0.013997368
1683	99.1	73.512	80.55703	0.013603221
1684	99.15	64.568	79.02497	0.015487548
1685	99.2	67.755	77.74342	0.014759058
1686	99.25	70.915	76.65889	0.014101389
1687	99.3	69.455	75.73393	0.014397812
1688	99.35	68.183	74.94148	0.014666412
1689	99.4	71.141	74.26094	0.014056592
1690	99.45	67.056	73.67623	0.014912909
1691	99.5	63.706	73.1746	0.015697109
1692	99.55	61.069	72.74584	0.01637492
1693	99.6	67.034	72.38181	0.014917803
1694	99.65	72.983	72.07604	0.013701821
1695	99.7	67.2	71.82346	0.014880952
1696	99.75	65.114	71.62011	0.01535768
1697	99.8	67.129	71.46312	0.014896691
1698	99.85	66.343	71.35059	0.01507318
1699	99.9	66.832	71.28155	0.014962892
1700	99.95	65.872	71.2559	0.015180957
1701	100	69.435	71.27452	0.014401959
1702	100.05	73.387	71.33938	0.013626392
1703	100.1	68.513	71.45372	0.01459577
1704	100.15	67.678	71.62261	0.01477585
1705	100.2	66.545	71.85381	0.015027425
1706	100.25	74.249	72.15949	0.013468195
1707	100.3	70.727	72.5592	0.014138872
1708	100.35	70.06	73.08488	0.01427348
1709	100.4	73.633	73.788	0.013580867
1710	100.45	76.24	74.7481	0.013116474
1711	100.5	74.387	76.08031	0.013443209
1712	100.55	74.179	77.93722	0.013480904
1713	100.6	79.842	80.49863	0.012524736
1714	100.65	83.878	83.94434	0.011922077
1715	100.7	85.002	88.40808	0.011764429
1716	100.75	90.808	93.91361	0.011012246
1717	100.8	96.746	100.28266	0.010336345
1718	100.85	97.681	107.02171	0.010237405
1719	100.9	101.618	113.18163	0.009840776
1720	100.95	112.451	117.39144	0.008892762
1721	101	109.671	118.52009	0.009118181
1722	101.05	100.615	116.5688	0.009938876
1723	101.1	98.12	112.7068	0.010191602
1724	101.15	100.294	108.40383	0.009970686
1725	101.2	101.556	104.78696	0.009846784
1726	101.25	106.648	102.58199	0.009376641
1727	101.3	103.834	102.29233	0.009630757
1728	101.35	105.906	104.3822	0.009442336
1729	101.4	106.62	109.41033	0.009379103
1730	101.45	118.174	118.08428	0.008462098
1731	101.5	131.491	131.30497	0.007605083
1732	101.55	148.294	149.95046	0.006743361
1733	101.6	164.416	174.67814	0.006082133
1734	101.65	195.339	205.51275	0.005119305
1735	101.7	224.401	241.3375	0.004456308
1736	101.75	267.896	279.37104	0.003732792
1737	101.8	311.525	314.81438	0.003210015
1738	101.85	324.414	340.87089	0.003082481
1739	101.9	338.41	350.15641	0.002954995
1740	101.95	328.636	338.82384	0.00304288
1741	102	301.322	310.07774	0.003318709
1742	102.05	265.256	272.03923	0.003769943
1743	102.1	219.823	232.45812	0.004549115
1744	102.15	184.724	196.20375	0.005413482
1745	102.2	153.523	165.5977	0.006513682
1746	102.25	136.554	141.26916	0.00732311
1747	102.3	118.825	122.83552	0.008415737
1748	102.35	102.552	109.37289	0.009751151
1749	102.4	93.332	99.78581	0.010714439
1750	102.45	90.033	93.01395	0.011107039
1751	102.5	80.74	88.18758	0.012385435
1752	102.55	80.124	84.66114	0.012480655
1753	102.6	81.856	81.99368	0.012216575
1754	102.65	78.817	79.90132	0.012687618
1755	102.7	78.329	78.20754	0.012766664
1756	102.75	74.832	76.80306	0.013363267
1757	102.8	69.512	75.61904	0.014386005
1758	102.85	67.793	74.60826	0.014750785
1759	102.9	69.57	73.7378	0.014374012
1760	102.95	70.703	72.98313	0.014143671
1761	103	73.148	72.32518	0.013670914
1762	103.05	66.436	71.74879	0.01505208
1763	103.1	67.846	71.24169	0.014739262
1764	103.15	68.418	70.7939	0.014616037
1765	103.2	68.699	70.39715	0.014556253
1766	103.25	68.668	70.04462	0.014562824
1767	103.3	65.857	69.73059	0.015184415
1768	103.35	61.815	69.45029	0.016177303
1769	103.4	75.976	69.19967	0.013162051
1770	103.45	72.25	68.97531	0.01384083
1771	103.5	70.94	68.77429	0.01409642
1772	103.55	61.869	68.59412	0.016163184
1773	103.6	65.98	68.43271	0.015156108
1774	103.65	65.865	68.28814	0.01518257
1775	103.7	68.583	68.15884	0.014580873
1776	103.75	68.912	68.04343	0.014511261
1777	103.8	69.675	67.9407	0.01435235
1778	103.85	67.208	67.84964	0.014879181
1779	103.9	66.059	67.76933	0.015137983
1780	103.95	66.601	67.69899	0.01501479
1781	104	63.968	67.63794	0.015632816
1782	104.05	63.117	67.5856	0.015843592
1783	104.1	64.178	67.54144	0.015581663
1784	104.15	66.923	67.50503	0.014942546
1785	104.2	66.558	67.476	0.01502449
1786	104.25	66.2	67.45401	0.01510574
1787	104.3	62.615	67.43882	0.015970614
1788	104.35	62.715	67.43019	0.015945149
1789	104.4	62.891	67.42796	0.015900526
1790	104.45	67.395	67.43199	0.014837896
1791	104.5	65.274	67.44218	0.015320036
1792	104.55	69.972	67.45848	0.014291431
1793	104.6	70.271	67.48086	0.014230621
1794	104.65	70.2	67.50935	0.014245014
1795	104.7	68.489	67.544	0.014600885
1796	104.75	70.244	67.5849	0.014236091
1797	104.8	72.362	67.63217	0.013819408
1798	104.85	69.649	67.68598	0.014357708
1799	104.9	70.532	67.74653	0.014177962
1800	104.95	69.8	67.81408	0.014326648
1801	105	66.706	67.88891	0.014991155
1802	105.05	68.501	67.97137	0.014598327
1803	105.1	68.362	68.06184	0.01462801
1804	105.15	71.833	68.16079	0.013921178
1805	105.2	71.172	68.26872	0.014050469
1806	105.25	71.142	68.38622	0.014056394
1807	105.3	72.223	68.51395	0.013846005
1808	105.35	68.846	68.65268	0.014525172
1809	105.4	71.719	68.80323	0.013943307
1810	105.45	66.538	68.96659	0.015029006
1811	105.5	71.236	69.14384	0.014037846
1812	105.55	67.561	69.33622	0.014801439
1813	105.6	70.51	69.54514	0.014182385
1814	105.65	72.556	69.77219	0.013782458
1815	105.7	71.441	70.01919	0.013997564
1816	105.75	70.032	70.28823	0.014279187
1817	105.8	74.972	70.58169	0.013338313
1818	105.85	73.266	70.9023	0.013648896
1819	105.9	72.683	71.25322	0.013758375
1820	105.95	73.026	71.63811	0.013693753
1821	106	73.389	72.06119	0.01362602
1822	106.05	80.316	72.52741	0.012450819
1823	106.1	73.021	73.04254	0.013694691
1824	106.15	75.466	73.61338	0.013251
1825	106.2	75.897	74.24796	0.013175751
1826	106.25	80.055	74.95381	0.012491412
1827	106.3	80.3	75.73424	0.0124533
1828	106.35	79.751	76.62519	0.012539028
1829	106.4	84.151	77.63112	0.0118834
1830	106.45	76.025	78.77238	0.013153568
1831	106.5	84.853	80.07435	0.011785087
1832	106.55	87.1	81.56937	0.011481056
1833	106.6	86.37	83.30023	0.011578094
1834	106.65	95.416	85.32608	0.010480423
1835	106.7	99.254	87.73294	0.010075161
1836	106.75	111.925	90.65124	0.008934554
1837	106.8	111.383	94.28357	0.008978031
1838	106.85	116.74	98.94429	0.008566044
1839	106.9	127.028	105.10939	0.00787228
1840	106.95	139.217	113.46761	0.007183031
1841	107	152.992	124.95434	0.006536289
1842	107.05	172.279	140.74053	0.005804538
1843	107.1	191.072	162.14611	0.005233629
1844	107.15	222.525	190.45579	0.004493877
1845	107.2	247.398	226.63179	0.00404207
1846	107.25	283.758	270.92617	0.00352413
1847	107.3	319.637	322.36466	0.003128549
1848	107.35	345.338	378.01091	0.002895714
1849	107.4	378.659	432.00804	0.002640899
1850	107.45	390.827	475.11079	0.002558677
1851	107.5	408.684	496.63881	0.002446878
1852	107.55	395.711	490.10018	0.002527097
1853	107.6	374.322	457.61304	0.002671497
1854	107.65	355.618	408.38177	0.002812006
1855	107.7	319.517	352.82268	0.003129724
1856	107.75	280.26	298.649	0.003568115
1857	107.8	256.185	250.28078	0.003903429
1858	107.85	230.568	209.67088	0.004337115
1859	107.9	199.932	177.17281	0.005001701
1860	107.95	173.664	152.16361	0.005758246
1861	108	157.148	133.49656	0.006363428
1862	108.05	141.077	119.84396	0.007088328
1863	108.1	126.808	109.93831	0.007885938
1864	108.15	116.642	102.71057	0.008573241
1865	108.2	115.302	97.33911	0.008672876
1866	108.25	107.196	93.23687	0.009328706
1867	108.3	99.329	90.00699	0.010067553
1868	108.35	101.985	87.39078	0.009805364
1869	108.4	97.031	85.22201	0.010305985
1870	108.45	86.557	83.39281	0.011553081
1871	108.5	88.983	81.83082	0.011238102
1872	108.55	87.128	80.48522	0.011477367
1873	108.6	80.899	79.31849	0.012361092
1874	108.65	85.586	78.30181	0.011684154
1875	108.7	86.571	77.41236	0.011551212
1876	108.75	88.314	76.63169	0.011323233
1877	108.8	83.067	75.94471	0.012038475
1878	108.85	79.955	75.33896	0.012507035
1879	108.9	85.792	74.80409	0.011656098
1880	108.95	83.837	74.33143	0.011927908
1881	109	81.145	73.91372	0.012323618
1882	109.05	78.623	73.54484	0.012718924
1883	109.1	79.317	73.21964	0.012607638
1884	109.15	79.728	72.93373	0.012542645
1885	109.2	73.102	72.68343	0.013679516
1886	109.25	75.157	72.4656	0.013305481
1887	109.3	77.425	72.27759	0.012915725
1888	109.35	75.217	72.1172	0.013294867
1889	109.4	74.053	71.98255	0.013503842
1890	109.45	73.454	71.87214	0.013613962
1891	109.5	76.021	71.78472	0.01315426
1892	109.55	71.903	71.71932	0.013907626
1893	109.6	73.506	71.67524	0.013604332
1894	109.65	70.151	71.65197	0.014254964
1895	109.7	77.571	71.64927	0.012891416
1896	109.75	71.653	71.66709	0.01395615
1897	109.8	69.905	71.70563	0.014305128
1898	109.85	66.873	71.76531	0.014953718
1899	109.9	70.852	71.84681	0.014113928
1900	109.95	71.544	71.9511	0.013977413
1901	110	75.342	72.07941	0.013272809
1902	110.05	72.822	72.23336	0.013732114
1903	110.1	73.408	72.41495	0.013622493
1904	110.15	75.493	72.62666	0.013246261
1905	110.2	74.355	72.87152	0.013448995
1906	110.25	74.802	73.15332	0.013368627
1907	110.3	72.799	73.47675	0.013736452
1908	110.35	72.698	73.84779	0.013755537
1909	110.4	67.348	74.27429	0.014848251
1910	110.45	68.94	74.7669	0.014505367
1911	110.5	75.517	75.34074	0.013242051
1912	110.55	71.157	76.01787	0.014053431
1913	110.6	70.979	76.83112	0.014088674
1914	110.65	73.326	77.82914	0.013637727
1915	110.7	74.571	79.0826	0.013410039
1916	110.75	78.201	80.69024	0.01278756
1917	110.8	75.059	82.7829	0.013322853
1918	110.85	80.667	85.52262	0.012396643
1919	110.9	88.611	89.09359	0.011285281
1920	110.95	96.035	93.68241	0.01041287
1921	111	100.116	99.447	0.009988413
1922	111.05	103.563	106.47431	0.009655958
1923	111.1	117.168	114.72516	0.008534754
1924	111.15	124.881	123.96002	0.008007623
1925	111.2	141.934	133.63079	0.007045528
1926	111.25	152.518	142.78778	0.006556603
1927	111.3	166.925	150.09663	0.005990714
1928	111.35	165.775	154.18324	0.006032273
1929	111.4	168.588	154.35208	0.00593162
1930	111.45	156.297	151.0561	0.006398075
1931	111.5	153.867	145.65631	0.006499119
1932	111.55	146.546	139.75373	0.006823796
1933	111.6	144.949	134.70694	0.006898978
1934	111.65	145.382	131.51429	0.006878431
1935	111.7	143.699	130.8799	0.006958991
1936	111.75	150.777	133.30567	0.006632311
1937	111.8	158.042	139.11599	0.006327432
1938	111.85	158.823	148.46307	0.006296317
1939	111.9	171.557	161.28715	0.005828966
1940	111.95	193.877	177.24321	0.005157909
1941	112	216.404	195.57413	0.004620987
1942	112.05	227.372	214.92291	0.004398079
1943	112.1	232.61	233.18319	0.004299041
1944	112.15	244.56	247.70342	0.004088976
1945	112.2	249.54	256.31448	0.004007374
1946	112.25	267.397	258.65636	0.003739758
1947	112.3	250.587	256.65394	0.00399063
1948	112.35	264.122	253.54424	0.003786129
1949	112.4	269.286	252.45583	0.003713524
1950	112.45	270.677	255.55779	0.00369444
1951	112.5	286.245	263.82416	0.003493511
1952	112.55	294.18	277.00294	0.003399279
1953	112.6	309.267	293.51392	0.003233452
1954	112.65	314.007	310.29966	0.003184642
1955	112.7	332.479	323.03007	0.003007709
1956	112.75	340.598	327.27869	0.002936013
1957	112.8	337.597	320.55585	0.002962112
1958	112.85	320.958	303.62057	0.003115672
1959	112.9	288.651	279.72458	0.003464391
1960	112.95	256.061	252.66753	0.003905319
1961	113	229.963	225.40891	0.004348526
1962	113.05	199.02	199.77551	0.005024621
1963	113.1	184.182	176.75784	0.005429412
1964	113.15	161.632	156.85408	0.006186894
1965	113.2	147.327	140.21256	0.006787622
1966	113.25	131.424	126.70311	0.00760896
1967	113.3	122.879	115.99235	0.008138087
1968	113.35	111.126	107.63781	0.008998794
1969	113.4	106.436	101.17662	0.009395317
1970	113.45	99.355	96.18461	0.010064919
1971	113.5	96.606	92.3055	0.010351324
1972	113.55	95.147	89.25696	0.010510053
1973	113.6	89.482	86.82488	0.011175432
1974	113.65	86.072	84.85164	0.01161818
1975	113.7	84.758	83.22332	0.011798296
1976	113.75	80.299	81.85837	0.012453455
1977	113.8	83.948	80.69852	0.011912136
1978	113.85	86.088	79.70186	0.011616021
1979	113.9	79.972	78.83789	0.012504377
1980	113.95	79.921	78.08397	0.012512356
1981	114	82.37	77.42292	0.012140342
1982	114.05	76.734	76.84141	0.013032033
1983	114.1	78.124	76.32883	0.012800164
1984	114.15	76.415	75.87659	0.013086436
1985	114.2	76.118	75.47764	0.013137497
1986	114.25	76.509	75.1261	0.013070358
1987	114.3	76.772	74.81704	0.013025582
1988	114.35	76.04	74.54632	0.013150973
1989	114.4	73.705	74.31044	0.013567601
1990	114.45	69.92	74.10645	0.014302059
1991	114.5	72.615	73.93182	0.013771259
1992	114.55	71.504	73.78448	0.013985232
1993	114.6	73.97	73.66267	0.013518994
1994	114.65	73.155	73.56494	0.013669606
1995	114.7	74.464	73.49012	0.013429308
1996	114.75	70.887	73.43728	0.014106959
1997	114.8	72.32	73.40571	0.013827434
1998	114.85	76.746	73.39492	0.013029995
1999	114.9	75.902	73.40461	0.013174883
2000	114.95	73.409	73.43468	0.013622308
2001	115	75.823	73.48521	0.01318861
2002	115.05	78.142	73.55648	0.012797215
2003	115.1	70.941	73.64897	0.014096221
2004	115.15	71.732	73.76335	0.01394078
2005	115.2	68.501	73.90053	0.014598327
2006	115.25	73.829	74.06164	0.013544813
2007	115.3	72.72	74.2481	0.013751375
2008	115.35	69.265	74.46161	0.014437306
2009	115.4	70.946	74.70419	0.014095227
2010	115.45	74.165	74.97827	0.013483449
2011	115.5	74.858	75.28671	0.013358626
2012	115.55	72.683	75.63291	0.013758375
2013	115.6	76.412	76.02086	0.01308695
2014	115.65	75.722	76.45533	0.013206202
2015	115.7	74.281	76.942	0.013462393
2016	115.75	78.128	77.48774	0.012799508
2017	115.8	76.272	78.10101	0.013110971
2018	115.85	73.9	78.79242	0.0135318
2019	115.9	75.751	79.57575	0.013201146
2020	115.95	75.723	80.46944	0.013206027
2021	116	82.291	81.49901	0.012151997
2022	116.05	85.068	82.70057	0.011755302
2023	116.1	86.386	84.12586	0.01157595
2024	116.15	89.585	85.84881	0.011162583
2025	116.2	95.376	87.97325	0.010484818
2026	116.25	93.942	90.64108	0.010644866
2027	116.3	99.518	94.03871	0.010048433
2028	116.35	100.813	98.39926	0.009919356
2029	116.4	104.397	103.99715	0.009578819
2030	116.45	113.194	111.13203	0.008834391
2031	116.5	121.335	120.10011	0.008241645
2032	116.55	127.497	131.15251	0.007843322
2033	116.6	143.81	144.44146	0.006953619
2034	116.65	155.174	159.95365	0.006444379
2035	116.7	176.792	177.42479	0.005656365
2036	116.75	190.669	196.22383	0.005244691
2037	116.8	205.835	215.20958	0.00485826
2038	116.85	219.096	232.6306	0.004564209
2039	116.9	227.738	246.26799	0.004391011
2040	116.95	235.913	254.04502	0.004238851
2041	117	241.554	254.96908	0.004139861
2042	117.05	241.47	249.73152	0.004141301
2043	117.1	234.634	240.42098	0.004261957
2044	117.15	231.523	229.64205	0.004319225
2045	117.2	221.485	219.74085	0.004514978
2046	117.25	213.005	212.46362	0.004694725
2047	117.3	218.699	208.93292	0.004572495
2048	117.35	208.913	209.72874	0.004786682
2049	117.4	219.875	214.94003	0.004548039
2050	117.45	220.977	224.2375	0.004525358
2051	117.5	231.052	236.73554	0.00432803
2052	117.55	251.922	250.98755	0.003969483
2053	117.6	256.06	264.9691	0.003905335
2054	117.65	266.086	276.36045	0.003758183
2055	117.7	266.265	283.2414	0.003755657
2056	117.75	272.593	284.90116	0.003668473
2057	117.8	278.663	282.11466	0.003588564
2058	117.85	268.143	276.61356	0.003729353
2059	117.9	263.33	270.19713	0.003797516
2060	117.95	265.657	264.0545	0.003764252
2061	118	268.716	258.48088	0.003721401
2062	118.05	261.29	252.91442	0.003827165
2063	118.1	254.466	246.25152	0.003929798
2064	118.15	245.493	237.40991	0.004073436
2065	118.2	239.462	225.90305	0.004176028
2066	118.25	225.6	212.0424	0.004432624
2067	118.3	218.495	196.73273	0.004576764
2068	118.35	198.835	181.0033	0.005029296
2069	118.4	179.594	165.75324	0.005568115
2070	118.45	167.797	151.62705	0.005959582
2071	118.5	156.853	139.01183	0.006375396
2072	118.55	141.448	128.08105	0.007069736
2073	118.6	130.732	118.84888	0.007649237
2074	118.65	120.8	111.21976	0.008278146
2075	118.7	108.231	105.02991	0.009239497
2076	118.75	112.968	100.06876	0.008852064
2077	118.8	98.406	96.1505	0.010161982
2078	118.85	96.209	93.06592	0.010394038
2079	118.9	97.417	90.6343	0.010265149
2080	118.95	92.434	88.71486	0.01081853
2081	119	89.834	87.18868	0.011131643
2082	119.05	88.816	85.96297	0.011259233
2083	119.1	90.504	84.97003	0.011049235
2084	119.15	88.397	84.16069	0.011312601
2085	119.2	89.409	83.49977	0.011184556
2086	119.25	85.094	82.96236	0.01175171
2087	119.3	79.464	82.53078	0.012584315
2088	119.35	81.892	82.19249	0.012211205
2089	119.4	83.138	81.93857	0.012028194
2090	119.45	81.967	81.76273	0.012200032
2091	119.5	78.528	81.66076	0.012734311
2092	119.55	80.791	81.63014	0.012377616
2093	119.6	78.098	81.66994	0.012804425
2094	119.65	82.721	81.78084	0.012088829
2095	119.7	84.42	81.96534	0.011845534
2096	119.75	81.918	82.22814	0.012207329
2097	119.8	85.127	82.57676	0.011747154
2098	119.85	84.832	83.02221	0.011788005
2099	119.9	88.452	83.58008	0.011305567
2100	119.95	83.351	84.27166	0.011997457
2101	120	83.905	85.12501	0.011918241
2102	120.05	91.495	86.17592	0.010929559
2103	120.1	87.691	87.46849	0.011403679
2104	120.15	87.086	89.05503	0.011482902
2105	120.2	88.002	90.99524	0.011363378
2106	120.25	90.882	93.35453	0.011003279
2107	120.3	95.636	96.20159	0.010456314
2108	120.35	94.217	99.60516	0.010613796
2109	120.4	100.95	103.6296	0.009905894
2110	120.45	110.732	108.32813	0.009030813
2111	120.5	115.28	113.73168	0.008674532
2112	120.55	114.087	119.83221	0.008765241
2113	120.6	132.747	126.56373	0.007533127
2114	120.65	137.567	133.79575	0.007269185
2115	120.7	145.097	141.36272	0.006891941
2116	120.75	154.618	149.13902	0.006467552
2117	120.8	163.532	157.1205	0.006115011
2118	120.85	168.148	165.4395	0.005947142
2119	120.9	173.568	174.28025	0.005761431
2120	120.95	190.143	183.73684	0.0052592
2121	121	196.038	193.67143	0.005101052
2122	121.05	202.278	203.63519	0.004943691
2123	121.1	209.479	212.8658	0.004773748
2124	121.15	227.721	220.43861	0.004391339
2125	121.2	234.271	225.59709	0.004268561
2126	121.25	233.756	228.13844	0.004277965
2127	121.3	235.128	228.59838	0.004253003
2128	121.35	232.693	228.09457	0.004297508
2129	121.4	234.209	227.96013	0.004269691
2130	121.45	235.164	229.40679	0.004252352
2131	121.5	237.821	233.33902	0.004204843
2132	121.55	238.735	240.29282	0.004188745
2133	121.6	254.697	250.42085	0.003926234
2134	121.65	271.687	263.46805	0.003680706
2135	121.7	294.081	278.73186	0.003400424
2136	121.75	306.661	295.06266	0.00326093
2137	121.8	332.582	311.01239	0.003006777
2138	121.85	340.014	325.20466	0.002941055
2139	121.9	355.009	336.81118	0.00281683
2140	121.95	355.124	345.81918	0.002815918
2141	122	353.047	352.85585	0.002832484
2142	122.05	352.648	358.67304	0.002835689
2143	122.1	367.201	363.60808	0.002723304
2144	122.15	368.141	367.26077	0.002716351
2145	122.2	380.143	368.55836	0.002630589
2146	122.25	380.314	366.16186	0.002629406
2147	122.3	375.265	359.13905	0.002664784
2148	122.35	373.108	347.50915	0.002680189
2149	122.4	355.578	332.30188	0.002812322
2150	122.45	332.277	315.1311	0.003009537
2151	122.5	313.036	297.61893	0.003194521
2152	122.55	295.107	280.98204	0.003388601
2153	122.6	276.587	265.8624	0.003615499
2154	122.65	257.703	252.33477	0.003880436
2155	122.7	241.603	240.02285	0.004139021
2156	122.75	229.279	228.30693	0.004361498
2157	122.8	215.129	216.59997	0.004648374
2158	122.85	203.439	204.59565	0.004915478
2159	122.9	197.547	192.36064	0.005062086
2160	122.95	190.048	180.24117	0.005261829
2161	123	167.242	168.68332	0.005979359
2162	123.05	153.435	158.0867	0.006517418
2163	123.1	142.622	148.73896	0.007011541
2164	123.15	136.693	140.81196	0.007315664
2165	123.2	134.774	134.3829	0.007419829
2166	123.25	133.104	129.45457	0.007512922
2167	123.3	128.62	125.97803	0.007774841
2168	123.35	122.08	123.84846	0.00819135
2169	123.4	124.051	122.90692	0.008061201
2170	123.45	124.657	122.95829	0.008022012
2171	123.5	129.897	123.75308	0.007698407
2172	123.55	130.494	124.95527	0.007663188
2173	123.6	136.573	126.17109	0.007322091
2174	123.65	138.834	126.96843	0.007202847
2175	123.7	147.01	126.9495	0.006802258
2176	123.75	138.749	125.8525	0.007207259
2177	123.8	136.878	123.62761	0.007305776
2178	123.85	138.731	120.43445	0.007208194
2179	123.9	129.364	116.56452	0.007730126
2180	123.95	111.995	112.34194	0.00892897
2181	124	109.068	108.05157	0.009168592
2182	124.05	102.178	103.90856	0.009786843
2183	124.1	95.998	100.05732	0.010416884
2184	124.15	98.22	96.58324	0.010181226
2185	124.2	93.204	93.52642	0.010729153
2186	124.25	92.003	90.8935	0.010869211
2187	124.3	88.694	88.66724	0.01127472
2188	124.35	84.248	86.81435	0.011869718
2189	124.4	87.587	85.29214	0.011417219
2190	124.45	84.753	84.054	0.011798992
2191	124.5	82.515	83.05368	0.012119009
2192	124.55	89.682	82.24841	0.01115051
2193	124.6	88.077	81.60068	0.011353702
2194	124.65	82.189	81.07909	0.012167078
2195	124.7	86.913	80.65829	0.011505759
2196	124.75	82.363	80.31848	0.012141374
2197	124.8	83.292	80.0446	0.012005955
2198	124.85	79.637	79.82542	0.012556977
2199	124.9	84.067	79.65267	0.011895274
2200	124.95	83.647	79.52031	0.011955001
2201	125	86.834	79.42391	0.011516226
2202	125.05	82.919	79.36024	0.012059962
2203	125.1	87.469	79.32691	0.011432622
2204	125.15	86.365	79.32215	0.011578765
2205	125.2	88.736	79.34466	0.011269383
2206	125.25	85.397	79.3935	0.011710013
2207	125.3	81.694	79.468	0.012240801
2208	125.35	82.393	79.56776	0.012136953
2209	125.4	84.632	79.69261	0.011815862
2210	125.45	82.222	79.84254	0.012162195
2211	125.5	80.683	80.01776	0.012394185
2212	125.55	87.897	80.21865	0.011376953
2213	125.6	81.733	80.44579	0.01223496
2214	125.65	84.486	80.69991	0.011836281
2215	125.7	86.559	80.98194	0.011552814
2216	125.75	88.498	81.29301	0.01129969
2217	125.8	85.752	81.63445	0.011661536
2218	125.85	85.402	82.00781	0.011709328
2219	125.9	86.932	82.41487	0.011503244
2220	125.95	84.54	82.85769	0.01182872
2221	126	82.872	83.33859	0.012066802
2222	126.05	84.393	83.8602	0.011849324
2223	126.1	78.754	84.42553	0.012697768
2224	126.15	83.2	85.03797	0.012019231
2225	126.2	89.153	85.70134	0.011216672
2226	126.25	90.514	86.41999	0.011048015
2227	126.3	88.671	87.19886	0.011277644
2228	126.35	91.335	88.04356	0.010948705
2229	126.4	86.665	88.9605	0.011538683
2230	126.45	87.701	89.95707	0.011402379
2231	126.5	89.602	91.04184	0.011160465
2232	126.55	91.661	92.22486	0.010909765
2233	126.6	88.313	93.51813	0.011323361
2234	126.65	93.412	94.93618	0.010705263
2235	126.7	96.795	96.49701	0.010331112
2236	126.75	102.498	98.22337	0.009756288
2237	126.8	98.633	100.14455	0.010138595
2238	126.85	102.597	102.29893	0.009746874
2239	126.9	99.309	104.73727	0.010069581
2240	126.95	105.792	107.52697	0.009452511
2241	127	109.923	110.75737	0.009097277
2242	127.05	113.157	114.54586	0.008837279
2243	127.1	115.284	119.0445	0.008674231
2244	127.15	127.136	124.44653	0.007865593
2245	127.2	132.801	130.99175	0.007530064
2246	127.25	141.373	138.96949	0.007073486
2247	127.3	153.234	148.71758	0.006525967
2248	127.35	165.696	160.61572	0.006035149
2249	127.4	175.432	175.0718	0.005700214
2250	127.45	200.364	192.50025	0.004990917
2251	127.5	218.089	213.29208	0.004585284
2252	127.55	235.686	237.7771	0.004242933
2253	127.6	266.027	266.17901	0.003759017
2254	127.65	298.564	298.56369	0.003349366
2255	127.7	340.564	334.77936	0.002936306
2256	127.75	369.258	374.38461	0.002708134
2257	127.8	415.39	416.55917	0.002407376
2258	127.85	455.076	459.99708	0.002197435
2259	127.9	504.409	502.80166	0.001982518
2260	127.95	535.55	542.44309	0.001867239
2261	128	568.105	575.88738	0.001760238
2262	128.05	588.883	600.00654	0.00169813
2263	128.1	590.803	612.25938	0.001692612
2264	128.15	602.672	611.40948	0.001659277
2265	128.2	587.174	597.9137	0.001703073
2266	128.25	570.962	573.76354	0.00175143
2267	128.3	532.383	541.89714	0.001878347
2268	128.35	493.471	505.51065	0.002026462
2269	128.4	455.996	467.54308	0.002193002
2270	128.45	415.435	430.42283	0.002407115
2271	128.5	386.789	396.02124	0.002585389
2272	128.55	364.826	365.71582	0.002741033
2273	128.6	346.248	340.48675	0.002888103
2274	128.65	317.888	321.00668	0.003145762
2275	128.7	304.641	307.71103	0.003282552
2276	128.75	297.797	300.84843	0.003357992
2277	128.8	309.896	300.51461	0.003226889
2278	128.85	316.813	306.67202	0.003156436
2279	128.9	324	319.15644	0.00308642
2280	128.95	339.858	337.67049	0.002942405
2281	129	362.133	361.76319	0.002761416
2282	129.05	383.421	390.79321	0.002608099
2283	129.1	410.471	423.87258	0.002436226
2284	129.15	451.698	459.78908	0.002213869
2285	129.2	487.308	496.91421	0.00205209
2286	129.25	525.337	533.12619	0.00190354
2287	129.3	557.14	565.81353	0.001794881
2288	129.35	578.447	592.05325	0.001728767
2289	129.4	625.418	609.02913	0.001598931
2290	129.45	607.976	614.62976	0.001644802
2291	129.5	608.363	607.99741	0.001643755
2292	129.55	603.6	589.74853	0.001656726
2293	129.6	565.565	561.75082	0.001768143
2294	129.65	514.449	526.59536	0.001943827
2295	129.7	469.755	487.02613	0.002128769
2296	129.75	430.55	445.52381	0.002322611
2297	129.8	399.176	404.09932	0.002505161
2298	129.85	349.329	364.25142	0.002862631
2299	129.9	311.229	327.01425	0.003213068
2300	129.95	284.273	293.036	0.003517745
2301	130	261.454	262.65773	0.003824765
2302	130.05	230.763	235.98172	0.00433345
2303	130.1	215.934	212.9291	0.004631045
2304	130.15	205.995	193.2893	0.004854487
2305	130.2	189.315	176.7632	0.005282202
2306	130.25	174.659	163.00057	0.005725442
2307	130.3	162.728	151.63164	0.006145224
2308	130.35	155.824	142.29207	0.006417497
2309	130.4	146.554	134.64128	0.006823423
2310	130.45	137.215	128.37428	0.007287833
2311	130.5	136.102	123.22787	0.007347431
2312	130.55	125.974	118.98216	0.007938146
2313	130.6	116.607	115.4588	0.008575814
2314	130.65	114.325	112.51708	0.008746993
2315	130.7	110.056	110.04887	0.009086283
2316	130.75	106.531	107.97336	0.009386939
2317	130.8	112.364	106.23198	0.008899648
2318	130.85	102.512	104.7839	0.009754956
2319	130.9	99.775	103.60221	0.010022551
2320	130.95	95.576	102.64963	0.010462878
2321	131	102.453	101.95229	0.009760573
2322	131.05	92.515	101.50233	0.010809058
2323	131.1	90.943	101.29396	0.010995899
2324	131.15	97.625	101.33025	0.010243278
2325	131.2	98.463	101.6148	0.010156099
2326	131.25	89.296	102.14954	0.01119871
2327	131.3	96.045	102.93293	0.010411786
2328	131.35	97.974	103.95803	0.01020679
2329	131.4	95.866	105.21038	0.010431227
2330	131.45	98.583	106.66556	0.010143737
2331	131.5	101.029	108.28635	0.009898148
2332	131.55	104.879	110.01949	0.009534797
2333	131.6	107.203	111.7926	0.009328097
2334	131.65	112.426	113.51292	0.00889474
2335	131.7	119.54	115.07042	0.008365401
2336	131.75	123.343	116.34825	0.008107473
2337	131.8	121.381	117.24116	0.008238522
2338	131.85	123.37	117.67813	0.008105698
2339	131.9	120.131	117.64055	0.008324246
2340	131.95	116.581	117.16778	0.008577727
2341	132	117.846	116.34796	0.008485651
2342	132.05	113.702	115.29931	0.00879492
2343	132.1	114.09	114.15024	0.00876501
2344	132.15	106.364	113.02471	0.009401677
2345	132.2	110.222	112.03469	0.009072599
2346	132.25	109.316	111.2786	0.009147792
2347	132.3	104.203	110.84339	0.009596653
2348	132.35	105.098	110.80808	0.009514929
2349	132.4	100.589	111.24743	0.009941445
2350	132.45	99.795	112.23503	0.010020542
2351	132.5	107.164	113.84554	0.009331492
2352	132.55	102.226	116.15604	0.009782247
2353	132.6	108.5	119.24588	0.00921659
2354	132.65	105.735	123.19601	0.009457606
2355	132.7	116.945	128.08676	0.008551028
2356	132.75	124.37	133.99441	0.008040524
2357	132.8	124.543	140.98668	0.008029355
2358	132.85	137.491	149.11693	0.007273203
2359	132.9	139.476	158.41723	0.007169692
2360	132.95	149.563	168.89007	0.006686146
2361	133	164.893	180.49833	0.006064539
2362	133.05	175.486	193.15309	0.00569846
2363	133.1	190.042	206.6991	0.005261995
2364	133.15	198.514	220.89897	0.005037428
2365	133.2	214.628	235.41959	0.004659224
2366	133.25	227.685	249.8288	0.004392033
2367	133.3	251.269	263.61314	0.003979799
2368	133.35	273.325	276.22689	0.003658648
2369	133.4	280.869	287.17104	0.003560379
2370	133.45	303.637	296.08243	0.003293406
2371	133.5	307.302	302.79986	0.003254128
2372	133.55	300.841	307.37378	0.003324015
2373	133.6	297.21	310.02573	0.003364624
2374	133.65	302.882	311.07749	0.003301616
2375	133.7	303.79	310.88767	0.003291748
2376	133.75	297.055	309.81699	0.00336638
2377	133.8	285.774	308.21917	0.003499269
2378	133.85	295.531	306.43862	0.00338374
2379	133.9	289.17	304.79694	0.003458173
2380	133.95	280.496	303.56468	0.003565113
2381	134	285.378	302.92548	0.003504124
2382	134.05	302.195	302.93652	0.003309122
2383	134.1	301.578	303.50717	0.003315892
2384	134.15	305.326	304.39598	0.003275188
2385	134.2	312.911	305.23452	0.003195797
2386	134.25	315.775	305.58277	0.003166812
2387	134.3	329.226	305.01322	0.003037427
2388	134.35	340.286	303.20512	0.002938705
2389	134.4	327.692	300.01908	0.003051646
2390	134.45	316.306	295.52424	0.003161496
2391	134.5	320.282	289.97014	0.003122249
2392	134.55	299.976	283.71903	0.0033336
2393	134.6	294.309	277.1674	0.003397789
2394	134.65	287.277	270.68152	0.003480961
2395	134.7	267.596	264.56067	0.003736977
2396	134.75	251.616	259.02941	0.00397431
2397	134.8	236.767	254.25313	0.004223562
2398	134.85	233.032	250.36569	0.004291256
2399	134.9	219.076	247.49642	0.004564626
2400	134.95	216.737	245.78532	0.004613887
2401	135	222.916	245.38146	0.004485995
2402	135.05	214.157	246.42694	0.004669471
2403	135.1	218.328	249.03453	0.004580265
2404	135.15	217.745	253.26004	0.004592528
2405	135.2	226.869	259.08645	0.00440783
2406	135.25	241.214	266.40861	0.004145696
2407	135.3	251.152	275.01635	0.003981653
2408	135.35	257.384	284.59339	0.003885245
2409	135.4	266.032	294.71833	0.003758946
2410	135.45	281.63	304.8825	0.003550758
2411	135.5	302.019	314.52815	0.00331105
2412	135.55	323.22	323.10585	0.003093868
2413	135.6	333.475	330.13821	0.002998726
2414	135.65	332.402	335.26878	0.003008405
2415	135.7	337.703	338.2769	0.002961182
2416	135.75	340.927	339.05536	0.002933179
2417	135.8	354.28	337.56678	0.002822626
2418	135.85	348.09	333.80541	0.00287282
2419	135.9	343.902	327.78578	0.002907805
2420	135.95	340.099	319.56216	0.00294032
2421	136	329.276	309.26458	0.003036966
2422	136.05	315.931	297.12719	0.003165248
2423	136.1	288.637	283.49059	0.003464559
2424	136.15	273.109	268.77468	0.003661542
2425	136.2	264.454	253.4332	0.003781376
2426	136.25	243.804	237.90587	0.004101655
2427	136.3	229.927	222.5832	0.004349206
2428	136.35	216.507	207.7857	0.004618788
2429	136.4	193.488	193.7543	0.005168279
2430	136.45	177.415	180.65642	0.005636502
2431	136.5	172.738	168.59222	0.005789114
2432	136.55	154.836	157.61592	0.006458446
2433	136.6	145.002	147.73586	0.006896457
2434	136.65	132.596	138.92614	0.007541706
2435	136.7	125.452	131.13793	0.007971176
2436	136.75	119.779	124.30547	0.008348709
2437	136.8	118.051	118.35179	0.008470915
2438	136.85	111.145	113.19363	0.008997256
2439	136.9	103.305	108.74547	0.009680074
2440	136.95	99.49	104.92283	0.010051261
2441	137	99.114	101.64485	0.010089392
2442	137.05	101.567	98.83613	0.009845718
2443	137.1	98.743	96.428	0.0101273
2444	137.15	91.144	94.35921	0.010971649
2445	137.2	87.51	92.57613	0.011427265
2446	137.25	89.415	91.03265	0.011183806
2447	137.3	89.401	89.6899	0.011185557
2448	137.35	85.304	88.51514	0.01172278
2449	137.4	84.703	87.48128	0.011805957
2450	137.45	84.879	86.56641	0.011781477
2451	137.5	82.927	85.7528	0.012058799
2452	137.55	83.299	85.02624	0.012004946
2453	137.6	80.363	84.37538	0.012443537
2454	137.65	80.885	83.79119	0.012363232
2455	137.7	78.867	83.26653	0.012679574
2456	137.75	79.301	82.78803	0.012610181
2457	137.8	81.696	82.3644	0.012240501
2458	137.85	78.221	81.98882	0.012784291
2459	137.9	78.064	81.65697	0.012810002
2460	137.95	78.51	81.36669	0.012737231
2461	138	77.324	81.11678	0.012932595
2462	138.05	75.966	80.90669	0.013163784
2463	138.1	78.185	80.73656	0.012790177
2464	138.15	79.685	80.60723	0.012549413
2465	138.2	79.75	80.52034	0.012539185
2466	138.25	78.248	80.47844	0.012779879
2467	138.3	80.199	80.48511	0.012468983
2468	138.35	81.829	80.54514	0.012220606
2469	138.4	76.472	80.66464	0.013076682
2470	138.45	78.416	80.85127	0.012752499
2471	138.5	77.244	81.11438	0.012945989
2472	138.55	75.473	81.46517	0.013249771
2473	138.6	81.668	81.90514	0.012244698
2474	138.65	78.215	82.46921	0.012785271
2475	138.7	81.879	83.16947	0.012213144
2476	138.75	77.301	84.02229	0.012936443
2477	138.8	78.334	85.04766	0.012765849
2478	138.85	79.819	86.26719	0.012528345
2479	138.9	79.264	87.7031	0.012616068
2480	138.95	83.981	89.37742	0.011907455
2481	139	82.314	91.31112	0.012148602
2482	139.05	79.432	93.52235	0.012589385
2483	139.1	83.255	96.02795	0.012011291
2484	139.15	86.914	98.83851	0.011505626
2485	139.2	87.843	101.95892	0.011383946
2486	139.25	90.524	105.38672	0.011046794
2487	139.3	95.886	109.11035	0.010429051
2488	139.35	97.699	113.10735	0.010235519
2489	139.4	103.848	117.34233	0.009629458
2490	139.45	114.684	121.76462	0.008719612
2491	139.5	117.595	126.30572	0.008503763
2492	139.55	129.86	130.87678	0.007700601
2493	139.6	140.694	135.3667	0.007107624
2494	139.65	146.542	139.64193	0.006823982
2495	139.7	155.786	143.54958	0.006419062
2496	139.75	168.865	146.92515	0.00592189
2497	139.8	179.748	149.60584	0.005563344
2498	139.85	181.029	151.44835	0.005523977
2499	139.9	184.272	152.34794	0.00542676
2500	139.95	175.74	152.254	0.005690224
2501	140	168.457	151.17753	0.005936233
2502	140.05	172.886	149.18843	0.005784158
2503	140.1	153.066	146.40388	0.006533129
2504	140.15	145.995	142.97138	0.00684955
2505	140.2	135.627	139.05128	0.007373163
2506	140.25	129.392	134.8018	0.007728453
2507	140.3	124.794	130.36867	0.008013206
2508	140.35	120.531	125.87913	0.008296621
2509	140.4	104.639	121.43972	0.009556666
2510	140.45	101.876	117.13643	0.009815855
2511	140.5	99.973	113.03639	0.010002701
2512	140.55	96.996	109.19002	0.010309703
2513	140.6	92.92	105.63338	0.010761946
2514	140.65	89.579	102.39046	0.011163331
2515	140.7	91.409	99.47515	0.010939842
2516	140.75	87.537	96.89317	0.011423741
2517	140.8	84.207	94.6438	0.011875497
2518	140.85	85.751	92.72149	0.011661672
2519	140.9	83.027	91.11732	0.012044275
2520	140.95	85.636	89.82042	0.011677332
2521	141	88.561	88.81916	0.011291652
2522	141.05	81.492	88.10221	0.012271143
2523	141.1	82.709	87.6594	0.012090583
2524	141.15	87.618	87.48236	0.01141318
2525	141.2	84.385	87.5649	0.011850447
2526	141.25	80.829	87.9033	0.012371797
2527	141.3	84.423	88.49619	0.011845113
2528	141.35	86.49	89.3444	0.01156203
2529	141.4	82.402	90.45054	0.012135628
2530	141.45	91.872	91.81848	0.010884709
2531	141.5	91.449	93.45265	0.010935057
2532	141.55	89.304	95.35727	0.011197707
2533	141.6	88.859	97.53554	0.011253784
2534	141.65	93.188	99.98867	0.010730995
2535	141.7	97.968	102.71493	0.010207415
2536	141.75	100.221	105.70854	0.009977949
2537	141.8	103.487	108.95857	0.009663049
2538	141.85	99.124	112.44757	0.010088374
2539	141.9	103.216	116.15018	0.00968842
2540	141.95	111.706	120.03152	0.008952071
2541	142	117.24	124.04561	0.008529512
2542	142.05	121.592	128.134	0.008224225
2543	142.1	125.306	132.22503	0.007980464
2544	142.15	144.175	136.23439	0.006936015
2545	142.2	151.406	140.06761	0.006604758
2546	142.25	150.216	143.62502	0.00665708
2547	142.3	162.136	146.80927	0.006167662
2548	142.35	166.617	149.53441	0.006001789
2549	142.4	173.356	151.73502	0.005768476
2550	142.45	173.028	153.37302	0.005779411
2551	142.5	169.882	154.44042	0.005886439
2552	142.55	177.469	154.95718	0.005634787
2553	142.6	179.896	154.96472	0.005558767
2554	142.65	171.648	154.51683	0.005825876
2555	142.7	163.03	153.67004	0.00613384
2556	142.75	158.396	152.47539	0.006313291
2557	142.8	159.223	150.97288	0.0062805
2558	142.85	157.523	149.18923	0.006348279
2559	142.9	157.493	147.13896	0.006349489
2560	142.95	157.545	144.82827	0.006347393
2561	143	156.745	142.26069	0.006379789
2562	143.05	150.98	139.44312	0.006623394
2563	143.1	152.981	136.39078	0.006536759
2564	143.15	147.77	133.13	0.006767273
2565	143.2	141.946	129.69833	0.007044933
2566	143.25	141.634	126.14227	0.007060452
2567	143.3	127.466	122.51364	0.007845229
2568	143.35	127.243	118.86535	0.007858978
2569	143.4	120.173	115.24769	0.008321337
2570	143.45	114.307	111.70561	0.008748371
2571	143.5	108.758	108.277	0.009194726
2572	143.55	100.469	104.99212	0.009953319
2573	143.6	98.104	101.87368	0.010193264
2574	143.65	98.007	98.9375	0.010203353
2575	143.7	94.818	96.19334	0.010546521
2576	143.75	94.107	93.64589	0.010626202
2577	143.8	94.642	91.29564	0.010566133
2578	143.85	90.631	89.13968	0.011033752
2579	143.9	88.775	87.17245	0.011264433
2580	143.95	88.248	85.38629	0.011331702
2581	144	90.848	83.77197	0.011007397
2582	144.05	85.121	82.31912	0.011747982
2583	144.1	82.439	81.01658	0.012130181
2584	144.15	80.436	79.85276	0.012432244
2585	144.2	79.026	78.81593	0.012654063
2586	144.25	80.669	77.89441	0.012396336
2587	144.3	90.755	77.07684	0.011018677
2588	144.35	86.324	76.35229	0.011584264
2589	144.4	84.451	75.71046	0.011841186
2590	144.45	84.151	75.14174	0.0118834
2591	144.5	82.356	74.63727	0.012142406
2592	144.55	85.302	74.18901	0.011723055
2593	144.6	86.377	73.7897	0.011577156
2594	144.65	85.844	73.43291	0.011649038
2595	144.7	82.679	73.11296	0.01209497
2596	144.75	88.02	72.82488	0.011361054
2597	144.8	84.834	72.56439	0.011787727
2598	144.85	82.326	72.32778	0.012146831
2599	144.9	87.036	72.11191	0.011489499
2600	144.95	85.324	71.91409	0.011720032
2601	145	86.464	71.73204	0.011565507



_refine_ls_goodness_of_fit_all
1.65
_journal_year
2009
_journal_page_last
299
_symmetry_space_group_name_H-M
'R 3 c'
_pd_char_colour
white
_cell_angle_beta
90
_pd_spec_mount_mode
reflection
_cell_angle_alpha
90
_diffrn_radiation_monochromator
'Ge [115]'
_chemical_formula_sum
'K0.30 Na0.70 Nb1 O3'
_chemical_formula_structural
'K Na (Nb O3)'
_journal_page_first
291
_chemical_formula_weight
168.73
_pd_proc_info_excluded_regions
'145-160\% 2\q'
_pd_meas_2theta_range_max
160
_diffrn_measurement_device_type
D2B
_symmetry_cell_setting
trigonal
_diffrn_ambient_temperature
100
_journal_coeditor_code
WF5039
_pd_meas_2theta_range_inc
0.05
_pd_spec_size_axial
20
_journal_name_full
'Acta Crystallographica, Section B'
_journal_volume
65
_cell_volume
374.902(10)
_journal_issue
3
_pd_spec_mounting
'Vanadium can packed with powder'
_pd_spec_shape
cylinder
_pd_proc_ls_prof_R_factor
0.055
_diffrn_radiation_wavelength
1.60
_pd_spec_size_equat
50
_pd_block_diffractogram_id
KNN30at100K
_pd_spec_size_thick
20
_pd_meas_scan_method
step
_diffrn_radiation_type
Neutron
_journal_paper_category
FA
_journal_date_accepted
2009-03-25
_pd_proc_ls_prof_wR_factor
0.075
_cell_angle_gamma
120
_refine_ls_number_parameters
24
_computing_structure_refinement
'TOPAS Academic'
_cell_formula_units_Z
6
_cell_length_a
5.59214(6)
_cell_length_b
5.59214(6)
_pd_meas_number_of_points
2601
_cell_length_c
13.8430(2)
_chemical_name_systematic
'Sodium Potassium Niobate'
_pd_proc_ls_prof_wR_expected
0.027
_journal_date_recd_electronic
2008-12-13
_pd_meas_2theta_range_min
0.10
loop_
_symmetry_equiv_pos_as_xyz

;-x+y, -x, z
;

;-x+y, y, z+1/2
;

;-x+y+1/3, -x-1/3, z-1/3
;

;-x+y+1/3, y-1/3, z+1/6
;

;-x+y-1/3, -x+1/3, z+1/3
;

;-x+y-1/3, y+1/3, z-1/6
;

;-y, -x, z+1/2
;

;-y, x-y, z
;

;-y+1/3, -x-1/3, z+1/6
;

;-y+1/3, x-y-1/3, z-1/3
;

;-y-1/3, -x+1/3, z-1/6
;

;-y-1/3, x-y+1/3, z+1/3
;

;x, y, z
;

;x, x-y, z+1/2
;

;x+1/3, y-1/3, z-1/3
;

;x+1/3, x-y-1/3, z+1/6
;

;x-1/3, y+1/3, z+1/3
;

;x-1/3, x-y+1/3, z-1/6
;

loop_
_atom_type_symbol
Na1+
K1+
Nb5+
O2-

loop_
_atom_site_type_symbol
_atom_site_label
_atom_site_fract_x
_atom_site_fract_y
_atom_site_fract_z
_atom_site_occupancy
Na+1 Na1 0 0 0.2666(3) 0.7
K+1 K1 0 0 0.2666(3) 0.3
Nb+5 Nb1 0 0 0.01564(12) 1
O-2 O1 0.1329(2) 0.3361(4) 0.08333 1



# powder data simulated using PLATON:

data_KNN30at100K_simulated_1.60

_publcif_pd_cifplot 'simulated 2021-03-25'

